# generated using pymatgen
data_CoH8C12(NO2)2
_symmetry_space_group_name_H-M   'P 1'
_cell_length_a   9.80640000
_cell_length_b   10.66850000
_cell_length_c   13.97115516
_cell_angle_alpha   84.69763441
_cell_angle_beta   69.45446648
_cell_angle_gamma   74.73300000
_symmetry_Int_Tables_number   1
_chemical_formula_structural   CoH8C12(NO2)2
_chemical_formula_sum   'Co4 H32 C48 N8 O16'
_cell_volume   1320.38367603
_cell_formula_units_Z   4
loop_
 _symmetry_equiv_pos_site_id
 _symmetry_equiv_pos_as_xyz
  1  'x, y, z'
loop_
 _atom_site_type_symbol
 _atom_site_label
 _atom_site_symmetry_multiplicity
 _atom_site_fract_x
 _atom_site_fract_y
 _atom_site_fract_z
 _atom_site_occupancy
  C  C0  1  0.44675000  0.87150000  0.37430000  1
  C  C1  1  0.44729000  0.79380000  0.45922000  1
  C  C2  1  0.37761000  0.84810000  0.55618000  1
  C  C3  1  0.30871000  0.97800000  0.56418000  1
  C  C4  1  0.38040000  0.76670000  0.65060000  1
  C  C5  1  0.89101000  0.75520000  0.06758000  1
  C  C6  1  0.81440000  0.88380000  0.06000000  1
  C  C7  1  0.71930000  0.96770000  0.15220000  1
  C  C8  1  0.25182000  0.26470000  0.08696000  1
  C  C9  1  0.24539000  0.33980000  0.00142000  1
  C  C10  1  0.49081000  0.27940000  0.06038000  1
  C  C11  1  0.20069000  0.47900000  0.54722000  1
  C  C12  1  0.28514000  0.40600000  0.45972000  1
  C  C13  1  0.43765000  0.35960000  0.43790000  1
  C  C14  1  0.50386000  0.39170000  0.50328000  1
  C  C15  1  0.41061000  0.46660000  0.58898000  1
  C  C16  1  0.53480000  0.27390000  0.34600000  1
  C  C17  1  0.31519000  0.05110000  0.47742000  1
  C  C18  1  0.97372000  0.68210000  0.97916000  1
  C  C19  1  0.82843000  0.93350000  0.96154000  1
  C  C20  1  0.91932000  0.85560000  0.87736000  1
  C  C21  1  0.37055000  0.38480000  0.94230000  1
  C  C22  1  0.49539000  0.35490000  0.97322000  1
  C  C23  1  0.36820000  0.46650000  0.84780000  1
  C  C24  1  0.31285000  0.88480000  0.05770000  1
  C  C25  1  0.46861000  0.85490000  0.02678000  1
  C  C26  1  0.21600000  0.96650000  0.15220000  1
  C  C27  1  0.95288000  0.18210000  0.02084000  1
  C  C28  1  0.78997000  0.43350000  0.03846000  1
  C  C29  1  0.79668000  0.35560000  0.12264000  1
  C  C30  1  0.33878000  0.76470000  0.91304000  1
  C  C31  1  0.24681000  0.83980000  0.99858000  1
  C  C32  1  0.55119000  0.77940000  0.93962000  1
  C  C33  1  0.74791000  0.97900000  0.45278000  1
  C  C34  1  0.74486000  0.90600000  0.54028000  1
  C  C35  1  0.87555000  0.85960000  0.56210000  1
  C  C36  1  0.00714000  0.89170000  0.49672000  1
  C  C37  1  0.99959000  0.96660000  0.41102000  1
  C  C38  1  0.88080000  0.77390000  0.65400000  1
  C  C39  1  0.82105000  0.37150000  0.62570000  1
  C  C40  1  0.90651000  0.29380000  0.54078000  1
  C  C41  1  0.93379000  0.34810000  0.44382000  1
  C  C42  1  0.87289000  0.47800000  0.43582000  1
  C  C43  1  0.79261000  0.55110000  0.52258000  1
  C  C44  1  0.03100000  0.26670000  0.34940000  1
  C  C45  1  0.95859000  0.25520000  0.93242000  1
  C  C46  1  0.87440000  0.38380000  0.94000000  1
  C  C47  1  0.87150000  0.46770000  0.84780000  1
  Co  Co48  1  0.62639000  0.61988000  0.75118000  1
  Co  Co49  1  0.12512000  0.61605000  0.74792000  1
  Co  Co50  1  0.37757000  0.11988000  0.24882000  1
  Co  Co51  1  0.87304000  0.11605000  0.25208000  1
  H  H52  1  0.49380000  0.83310000  0.30840000  1
  H  H53  1  0.49520000  0.70370000  0.45120000  1
  H  H54  1  0.88670000  0.71780000  0.13260000  1
  H  H55  1  0.16700000  0.23270000  0.12580000  1
  H  H56  1  0.57690000  0.25800000  0.08080000  1
  H  H57  1  0.09530000  0.50930000  0.56220000  1
  H  H58  1  0.23840000  0.38810000  0.41520000  1
  H  H59  1  0.60930000  0.36310000  0.48940000  1
  H  H60  1  0.45470000  0.48900000  0.63360000  1
  H  H61  1  0.25650000  0.01730000  0.62960000  1
  H  H62  1  0.27110000  0.14190000  0.48460000  1
  H  H63  1  0.93240000  0.89260000  0.81120000  1
  H  H64  1  0.15720000  0.36020000  0.98340000  1
  H  H65  1  0.58200000  0.38540000  0.93560000  1
  H  H66  1  0.77600000  0.01980000  0.95260000  1
  H  H67  1  0.14060000  0.86020000  0.01660000  1
  H  H68  1  0.51760000  0.88540000  0.06440000  1
  H  H69  1  0.72860000  0.51980000  0.04740000  1
  H  H70  1  0.74360000  0.39260000  0.18880000  1
  H  H71  1  0.29280000  0.73270000  0.87420000  1
  H  H72  1  0.65770000  0.75800000  0.91920000  1
  H  H73  1  0.65360000  0.88810000  0.58480000  1
  H  H74  1  0.09870000  0.86310000  0.51060000  1
  H  H75  1  0.08830000  0.98900000  0.36640000  1
  H  H76  1  0.80220000  0.33310000  0.69160000  1
  H  H77  1  0.94640000  0.20370000  0.54880000  1
  H  H78  1  0.88610000  0.51730000  0.37040000  1
  H  H79  1  0.75570000  0.64190000  0.51540000  1
  H  H80  1  0.01930000  0.21780000  0.86740000  1
  H  H81  1  0.65750000  0.00930000  0.43780000  1
  H  H82  1  0.02110000  0.59350000  0.98620000  1
  H  H83  1  0.00730000  0.09350000  0.01380000  1
  N  N84  1  0.37056000  0.23530000  0.11708000  1
  N  N85  1  0.26163000  0.50870000  0.61174000  1
  N  N86  1  0.38109000  0.00070000  0.38222000  1
  N  N87  1  0.99061000  0.72950000  0.88438000  1
  N  N88  1  0.87499000  0.22950000  0.11562000  1
  N  N89  1  0.87337000  0.00870000  0.38826000  1
  N  N90  1  0.48764000  0.73530000  0.88292000  1
  N  N91  1  0.76331000  0.50070000  0.61778000  1
  O  O92  1  0.26069000  0.74880000  0.71422000  1
  O  O93  1  0.50954000  0.72700000  0.65812000  1
  O  O94  1  0.78061000  0.97770000  0.21578000  1
  O  O95  1  0.28410000  0.99120000  0.20680000  1
  O  O96  1  0.47517000  0.25060000  0.28586000  1
  O  O97  1  0.67143000  0.23280000  0.33674000  1
  O  O98  1  0.58756000  0.01460000  0.15648000  1
  O  O99  1  0.16766000  0.22700000  0.34188000  1
  O  O100  1  0.24576000  0.49680000  0.83188000  1
  O  O101  1  0.49090000  0.49120000  0.79320000  1
  O  O102  1  0.00817000  0.73280000  0.66326000  1
  O  O103  1  0.99639000  0.47770000  0.78422000  1
  O  O104  1  0.07764000  0.99680000  0.16812000  1
  O  O105  1  0.97491000  0.24880000  0.28578000  1
  O  O106  1  0.76103000  0.75060000  0.71414000  1
  O  O107  1  0.74404000  0.51460000  0.84352000  1
