# generated using pymatgen
data_Na7.76Al24Si24O96
_symmetry_space_group_name_H-M   'P 1'
_cell_length_a   17.75120863
_cell_length_b   17.75120863
_cell_length_c   17.75120863
_cell_angle_alpha   60.00000000
_cell_angle_beta   60.00000000
_cell_angle_gamma   60.00000000
_symmetry_Int_Tables_number   1
_chemical_formula_structural   Na7.76Al24Si24O96
_chemical_formula_sum   'Na7.76 Al24 Si24 O96'
_cell_volume   3955.20308122
_cell_formula_units_Z   1
loop_
 _symmetry_equiv_pos_site_id
 _symmetry_equiv_pos_as_xyz
  1  'x, y, z'
loop_
 _atom_site_type_symbol
 _atom_site_label
 _atom_site_symmetry_multiplicity
 _atom_site_fract_x
 _atom_site_fract_y
 _atom_site_fract_z
 _atom_site_occupancy
  Al  Al0  1  0.14334000  0.96704000  0.78494000  1.0
  Al  Al1  1  0.39532000  0.85666000  0.21506000  1.0
  Al  Al2  1  0.85666000  0.39532000  0.03296000  1.0
  Al  Al3  1  0.21506000  0.03296000  0.39532000  1.0
  Al  Al4  1  0.03296000  0.21506000  0.85666000  1.0
  Al  Al5  1  0.14334000  0.78494000  0.60468000  1.0
  Al  Al6  1  0.60468000  0.96704000  0.14334000  1.0
  Al  Al7  1  0.96704000  0.60468000  0.78494000  1.0
  Al  Al8  1  0.78494000  0.14334000  0.96704000  1.0
  Al  Al9  1  0.21506000  0.39532000  0.85666000  1.0
  Al  Al10  1  0.03296000  0.85666000  0.39532000  1.0
  Al  Al11  1  0.39532000  0.21506000  0.03296000  1.0
  Al  Al12  1  0.85666000  0.03296000  0.21506000  1.0
  Al  Al13  1  0.60468000  0.14334000  0.78494000  1.0
  Al  Al14  1  0.14334000  0.60468000  0.96704000  1.0
  Al  Al15  1  0.78494000  0.96704000  0.60468000  1.0
  Al  Al16  1  0.96704000  0.78494000  0.14334000  1.0
  Al  Al17  1  0.85666000  0.21506000  0.39532000  1.0
  Al  Al18  1  0.39532000  0.03296000  0.85666000  1.0
  Al  Al19  1  0.03296000  0.39532000  0.21506000  1.0
  Al  Al20  1  0.21506000  0.85666000  0.03296000  1.0
  Al  Al21  1  0.78494000  0.60468000  0.14334000  1.0
  Al  Al22  1  0.96704000  0.14334000  0.60468000  1.0
  Al  Al23  1  0.60468000  0.78494000  0.96704000  1.0
  Na  Na24  1  0.95250000  0.95250000  0.95250000  0.97
  Na  Na25  1  0.35750000  0.04750000  0.04750000  0.97
  Na  Na26  1  0.04750000  0.35750000  0.04750000  0.97
  Na  Na27  1  0.04750000  0.04750000  0.35750000  0.97
  Na  Na28  1  0.04750000  0.04750000  0.04750000  0.97
  Na  Na29  1  0.95250000  0.95250000  0.64250000  0.97
  Na  Na30  1  0.64250000  0.95250000  0.95250000  0.97
  Na  Na31  1  0.95250000  0.64250000  0.95250000  0.97
  O  O32  1  0.21580000  0.00380000  0.78460000  1.0
  O  O33  1  0.50420000  0.78420000  0.21540000  1.0
  O  O34  1  0.78420000  0.50420000  0.99620000  1.0
  O  O35  1  0.21540000  0.99620000  0.50420000  1.0
  O  O36  1  0.99620000  0.21540000  0.78420000  1.0
  O  O37  1  0.21580000  0.78460000  0.49580000  1.0
  O  O38  1  0.49580000  0.00380000  0.21580000  1.0
  O  O39  1  0.00380000  0.49580000  0.78460000  1.0
  O  O40  1  0.78460000  0.21580000  0.00380000  1.0
  O  O41  1  0.21540000  0.50420000  0.78420000  1.0
  O  O42  1  0.99620000  0.78420000  0.50420000  1.0
  O  O43  1  0.50420000  0.21540000  0.99620000  1.0
  O  O44  1  0.78420000  0.99620000  0.21540000  1.0
  O  O45  1  0.49580000  0.21580000  0.78460000  1.0
  O  O46  1  0.21580000  0.49580000  0.00380000  1.0
  O  O47  1  0.78460000  0.00380000  0.49580000  1.0
  O  O48  1  0.00380000  0.78460000  0.21580000  1.0
  O  O49  1  0.78420000  0.21540000  0.50420000  1.0
  O  O50  1  0.50420000  0.99620000  0.78420000  1.0
  O  O51  1  0.99620000  0.50420000  0.21540000  1.0
  O  O52  1  0.21540000  0.78420000  0.99620000  1.0
  O  O53  1  0.78460000  0.49580000  0.21580000  1.0
  O  O54  1  0.00380000  0.21580000  0.49580000  1.0
  O  O55  1  0.49580000  0.78460000  0.00380000  1.0
  O  O56  1  0.14540000  0.85680000  0.86040000  1.0
  O  O57  1  0.36260000  0.85460000  0.13960000  1.0
  O  O58  1  0.85460000  0.36260000  0.14320000  1.0
  O  O59  1  0.13960000  0.14320000  0.36260000  1.0
  O  O60  1  0.14320000  0.13960000  0.85460000  1.0
  O  O61  1  0.14540000  0.86040000  0.63740000  1.0
  O  O62  1  0.63740000  0.85680000  0.14540000  1.0
  O  O63  1  0.85680000  0.63740000  0.86040000  1.0
  O  O64  1  0.86040000  0.14540000  0.85680000  1.0
  O  O65  1  0.13960000  0.36260000  0.85460000  1.0
  O  O66  1  0.14320000  0.85460000  0.36260000  1.0
  O  O67  1  0.36260000  0.13960000  0.14320000  1.0
  O  O68  1  0.85460000  0.14320000  0.13960000  1.0
  O  O69  1  0.63740000  0.14540000  0.86040000  1.0
  O  O70  1  0.14540000  0.63740000  0.85680000  1.0
  O  O71  1  0.86040000  0.85680000  0.63740000  1.0
  O  O72  1  0.85680000  0.86040000  0.14540000  1.0
  O  O73  1  0.85460000  0.13960000  0.36260000  1.0
  O  O74  1  0.36260000  0.14320000  0.85460000  1.0
  O  O75  1  0.14320000  0.36260000  0.13960000  1.0
  O  O76  1  0.13960000  0.85460000  0.14320000  1.0
  O  O77  1  0.86040000  0.63740000  0.14540000  1.0
  O  O78  1  0.85680000  0.14540000  0.63740000  1.0
  O  O79  1  0.63740000  0.86040000  0.85680000  1.0
  O  O80  1  0.03050000  0.03850000  0.81950000  1.0
  O  O81  1  0.38850000  0.96950000  0.18050000  1.0
  O  O82  1  0.96950000  0.38850000  0.96150000  1.0
  O  O83  1  0.18050000  0.96150000  0.38850000  1.0
  O  O84  1  0.96150000  0.18050000  0.96950000  1.0
  O  O85  1  0.03050000  0.81950000  0.61150000  1.0
  O  O86  1  0.61150000  0.03850000  0.03050000  1.0
  O  O87  1  0.03850000  0.61150000  0.81950000  1.0
  O  O88  1  0.81950000  0.03050000  0.03850000  1.0
  O  O89  1  0.18050000  0.38850000  0.96950000  1.0
  O  O90  1  0.96150000  0.96950000  0.38850000  1.0
  O  O91  1  0.38850000  0.18050000  0.96150000  1.0
  O  O92  1  0.96950000  0.96150000  0.18050000  1.0
  O  O93  1  0.61150000  0.03050000  0.81950000  1.0
  O  O94  1  0.03050000  0.61150000  0.03850000  1.0
  O  O95  1  0.81950000  0.03850000  0.61150000  1.0
  O  O96  1  0.03850000  0.81950000  0.03050000  1.0
  O  O97  1  0.96950000  0.18050000  0.38850000  1.0
  O  O98  1  0.38850000  0.96150000  0.96950000  1.0
  O  O99  1  0.96150000  0.38850000  0.18050000  1.0
  O  O100  1  0.18050000  0.96950000  0.96150000  1.0
  O  O101  1  0.81950000  0.61150000  0.03050000  1.0
  O  O102  1  0.03850000  0.03050000  0.61150000  1.0
  O  O103  1  0.61150000  0.81950000  0.03850000  1.0
  O  O104  1  0.17550000  0.96310000  0.67810000  1.0
  O  O105  1  0.31670000  0.82450000  0.32190000  1.0
  O  O106  1  0.82450000  0.31670000  0.03690000  1.0
  O  O107  1  0.32190000  0.03690000  0.31670000  1.0
  O  O108  1  0.03690000  0.32190000  0.82450000  1.0
  O  O109  1  0.17550000  0.67810000  0.68330000  1.0
  O  O110  1  0.68330000  0.96310000  0.17550000  1.0
  O  O111  1  0.96310000  0.68330000  0.67810000  1.0
  O  O112  1  0.67810000  0.17550000  0.96310000  1.0
  O  O113  1  0.32190000  0.31670000  0.82450000  1.0
  O  O114  1  0.03690000  0.82450000  0.31670000  1.0
  O  O115  1  0.31670000  0.32190000  0.03690000  1.0
  O  O116  1  0.82450000  0.03690000  0.32190000  1.0
  O  O117  1  0.68330000  0.17550000  0.67810000  1.0
  O  O118  1  0.17550000  0.68330000  0.96310000  1.0
  O  O119  1  0.67810000  0.96310000  0.68330000  1.0
  O  O120  1  0.96310000  0.67810000  0.17550000  1.0
  O  O121  1  0.82450000  0.32190000  0.31670000  1.0
  O  O122  1  0.31670000  0.03690000  0.82450000  1.0
  O  O123  1  0.03690000  0.31670000  0.32190000  1.0
  O  O124  1  0.32190000  0.82450000  0.03690000  1.0
  O  O125  1  0.67810000  0.68330000  0.17550000  1.0
  O  O126  1  0.96310000  0.17550000  0.68330000  1.0
  O  O127  1  0.68330000  0.67810000  0.96310000  1.0
  Si  Si128  1  0.96376000  0.14478000  0.78518000  1.0
  Si  Si129  1  0.39372000  0.03624000  0.21482000  1.0
  Si  Si130  1  0.03624000  0.39372000  0.85522000  1.0
  Si  Si131  1  0.21482000  0.85522000  0.39372000  1.0
  Si  Si132  1  0.85522000  0.21482000  0.03624000  1.0
  Si  Si133  1  0.96376000  0.78518000  0.60628000  1.0
  Si  Si134  1  0.60628000  0.14478000  0.96376000  1.0
  Si  Si135  1  0.14478000  0.60628000  0.78518000  1.0
  Si  Si136  1  0.78518000  0.96376000  0.14478000  1.0
  Si  Si137  1  0.21482000  0.39372000  0.03624000  1.0
  Si  Si138  1  0.85522000  0.03624000  0.39372000  1.0
  Si  Si139  1  0.39372000  0.21482000  0.85522000  1.0
  Si  Si140  1  0.03624000  0.85522000  0.21482000  1.0
  Si  Si141  1  0.60628000  0.96376000  0.78518000  1.0
  Si  Si142  1  0.96376000  0.60628000  0.14478000  1.0
  Si  Si143  1  0.78518000  0.14478000  0.60628000  1.0
  Si  Si144  1  0.14478000  0.78518000  0.96376000  1.0
  Si  Si145  1  0.03624000  0.21482000  0.39372000  1.0
  Si  Si146  1  0.39372000  0.85522000  0.03624000  1.0
  Si  Si147  1  0.85522000  0.39372000  0.21482000  1.0
  Si  Si148  1  0.21482000  0.03624000  0.85522000  1.0
  Si  Si149  1  0.78518000  0.60628000  0.96376000  1.0
  Si  Si150  1  0.14478000  0.96376000  0.60628000  1.0
  Si  Si151  1  0.60628000  0.78518000  0.14478000  1.0
