# generated using pymatgen
data_Al3H36C60O13
_symmetry_space_group_name_H-M   'P 1'
_cell_length_a   24.20642095
_cell_length_b   30.52452388
_cell_length_c   30.52485022
_cell_angle_alpha   60.00035417
_cell_angle_beta   90.00000010
_cell_angle_gamma   89.99999991
_symmetry_Int_Tables_number   1
_chemical_formula_structural   Al3H36C60O13
_chemical_formula_sum   'Al6 H72 C120 O26'
_cell_volume   19532.83148552
_cell_formula_units_Z   2
loop_
 _symmetry_equiv_pos_site_id
 _symmetry_equiv_pos_as_xyz
  1  'x, y, z'
loop_
 _atom_site_type_symbol
 _atom_site_label
 _atom_site_symmetry_multiplicity
 _atom_site_fract_x
 _atom_site_fract_y
 _atom_site_fract_z
 _atom_site_occupancy
  Al  Al0  1  0.25000413  0.30049592  0.39901406  1
  Al  Al1  1  0.25000413  0.39891859  0.30059220  1
  Al  Al2  1  0.25000413  0.30049204  0.30059374  1
  Al  Al3  1  0.75000413  0.69943784  0.60111842  1
  Al  Al4  1  0.75000413  0.60101517  0.69954028  1
  Al  Al5  1  0.75000413  0.69944171  0.69953874  1
  H  H6  1  0.92808848  0.65383622  0.57373022  1
  H  H7  1  0.99296100  0.60866982  0.53682308  1
  H  H8  1  0.85930630  0.48516494  0.57715915  1
  H  H9  1  0.79421028  0.53062311  0.61365305  1
  H  H10  1  0.03824356  0.57812396  0.50745738  1
  H  H11  1  0.10094126  0.53640125  0.46554734  1
  H  H12  1  0.96898451  0.41117238  0.50779123  1
  H  H13  1  0.90631532  0.45290734  0.54972551  1
  H  H14  1  0.14588837  0.50656800  0.43531579  1
  H  H15  1  0.20629622  0.46820834  0.38886923  1
  H  H16  1  0.07290605  0.34497244  0.42730600  1
  H  H17  1  0.01280263  0.38304043  0.47425367  1
  H  H18  1  0.28345449  0.41719623  0.44625934  1
  H  H19  1  0.34733837  0.45404116  0.49210956  1
  H  H20  1  0.50246298  0.43188719  0.41582805  1
  H  H21  1  0.43847697  0.39546315  0.36960210  1
  H  H22  1  0.39262681  0.48340730  0.52265127  1
  H  H23  1  0.45528956  0.52531524  0.56439806  1
  H  H24  1  0.61123344  0.50119810  0.49044841  1
  H  H25  1  0.54853763  0.45926204  0.44873198  1
  H  H26  1  0.50021517  0.55554550  0.59424611  1
  H  H27  1  0.56152984  0.60204932  0.63197837  1
  H  H28  1  0.71728125  0.58181747  0.55517727  1
  H  H29  1  0.65600764  0.53479596  0.51791889  1
  H  H30  1  0.29909393  0.14637864  0.37965891  1
  H  H31  1  0.36499114  0.06494955  0.41693673  1
  H  H32  1  0.48968908  0.14425248  0.47022194  1
  H  H33  1  0.42350948  0.22552307  0.43333602  1
  H  H34  1  0.41053391  0.00520163  0.44639626  1
  H  H35  1  0.47316446  0.92152665  0.48828133  1
  H  H36  1  0.59966809  0.00108120  0.53969776  1
  H  H37  1  0.53702113  0.08476440  0.49777218  1
  H  H38  1  0.51800904  0.86139737  0.51847525  1
  H  H39  1  0.57736708  0.77593091  0.56454075  1
  H  H40  1  0.70213992  0.85348427  0.61965654  1
  H  H41  1  0.64305460  0.93914022  0.57307844  1
  H  H42  1  0.89824127  0.79120429  0.67145569  1
  H  H43  1  0.96495900  0.87211734  0.62850846  1
  H  H44  1  0.89175726  0.91726763  0.47090197  1
  H  H45  1  0.82466142  0.83657329  0.51394224  1
  H  H46  1  0.01051682  0.93185579  0.59824275  1
  H  H47  1  0.07316860  0.01551741  0.55648483  1
  H  H48  1  0.00244169  0.05999528  0.39824238  1
  H  H49  1  0.93981645  0.97629842  0.44003100  1
  H  H50  1  0.11802165  0.07564136  0.52656253  1
  H  H51  1  0.17661879  0.16158638  0.48604666  1
  H  H52  1  0.10320521  0.20866660  0.32810071  1
  H  H53  1  0.04507655  0.12240897  0.36858053  1
  H  H54  1  0.21470245  0.45280374  0.13780130  1
  H  H55  1  0.15312987  0.49032244  0.05365353  1
  H  H56  1  0.00266069  0.39725853  0.14916043  1
  H  H57  1  0.06413318  0.36009303  0.23339022  1
  H  H58  1  0.10815216  0.51974416  0.99355091  1
  H  H59  1  0.04544487  0.56165168  0.90992509  1
  H  H60  1  0.89523197  0.46704257  0.00438692  1
  H  H61  1  0.95798370  0.42512436  0.08800335  1
  H  H62  1  0.00041721  0.59186775  0.84991159  1
  H  H63  1  0.93684808  0.63772699  0.76709418  1
  H  H64  1  0.78513166  0.54638002  0.86158874  1
  H  H65  1  0.84890407  0.50011389  0.94429631  1
  H  H66  1  0.36742865  0.32953937  0.18945051  1
  H  H67  1  0.42519806  0.37276595  0.10291107  1
  H  H68  1  0.40984817  0.52856740  0.09414049  1
  H  H69  1  0.35249265  0.48522305  0.18095928  1
  H  H70  1  0.46958925  0.40306795  0.04243961  1
  H  H71  1  0.53239967  0.44482069  0.95887864  1
  H  H72  1  0.51525123  0.60139161  0.94809311  1
  H  H73  1  0.45240847  0.55961000  0.03165230  1
  H  H74  1  0.57763104  0.47473102  0.89899324  1
  H  H75  1  0.64494199  0.51497444  0.81852893  1
  H  H76  1  0.63180768  0.67103951  0.80935496  1
  H  H77  1  0.56397776  0.63086299  0.88951091  1
  C  C78  1  0.32011776  0.23980881  0.38014651  1
  C  C79  1  0.32011776  0.38004468  0.38014433  1
  C  C80  1  0.32011776  0.38004651  0.23990917  1
  C  C81  1  0.17988224  0.23980881  0.38014651  1
  C  C82  1  0.17988224  0.38004468  0.38014433  1
  C  C83  1  0.17988224  0.38004651  0.23990917  1
  C  C84  1  0.82011776  0.76012495  0.61998597  1
  C  C85  1  0.82011776  0.61988908  0.61998815  1
  C  C86  1  0.82011776  0.61988725  0.76022331  1
  C  C87  1  0.67988224  0.76012495  0.61998597  1
  C  C88  1  0.67988224  0.61988908  0.61998815  1
  C  C89  1  0.67988224  0.61988725  0.76022331  1
  C  C90  1  0.85613402  0.59587809  0.59597723  1
  C  C91  1  0.91340950  0.61803121  0.57435233  1
  C  C92  1  0.95069903  0.59207434  0.55319145  1
  C  C93  1  0.93071706  0.54388623  0.55377239  1
  C  C94  1  0.87387976  0.52112240  0.57631866  1
  C  C95  1  0.83648325  0.54722976  0.59728053  1
  C  C96  1  0.96740581  0.51891095  0.53120009  1
  C  C97  1  0.02351292  0.54264723  0.50744496  1
  C  C98  1  0.05954414  0.51865978  0.48345581  1
  C  C99  1  0.03936717  0.47096170  0.48318739  1
  C  C100  1  0.98368775  0.44670291  0.50771444  1
  C  C101  1  0.94768057  0.47068133  0.53176451  1
  C  C102  1  0.07461634  0.44796341  0.45777468  1
  C  C103  1  0.13037990  0.47221906  0.43357942  1
  C  C104  1  0.16508738  0.45019549  0.40687297  1
  C  C105  1  0.14386598  0.40405566  0.40415525  1
  C  C106  1  0.08841247  0.37935275  0.42897317  1
  C  C107  1  0.05385498  0.40121985  0.45594850  1
  C  C108  1  0.35613402  0.40405566  0.40415525  1
  C  C109  1  0.33001485  0.42042988  0.43969705  1
  C  C110  1  0.36670099  0.44155279  0.46607128  1
  C  C111  1  0.42954025  0.44618645  0.45696108  1
  C  C112  1  0.45584856  0.42887518  0.42220228  1
  C  C113  1  0.41910077  0.40795412  0.39564620  1
  C  C114  1  0.46586717  0.46873601  0.48218662  1
  C  C115  1  0.43912663  0.48727492  0.51576686  1
  C  C116  1  0.47509958  0.51126046  0.53979456  1
  C  C117  1  0.53781758  0.51674813  0.53014334  1
  C  C118  1  0.56471923  0.49742050  0.49727002  1
  C  C119  1  0.52872088  0.47337093  0.47328555  1
  C  C120  1  0.57346061  0.54218571  0.55286910  1
  C  C121  1  0.54637206  0.56116449  0.58593306  1
  C  C122  1  0.58159153  0.58790326  0.60760240  1
  C  C123  1  0.64386598  0.59587809  0.59597723  1
  C  C124  1  0.67112260  0.57626772  0.56345875  1
  C  C125  1  0.63592750  0.54925214  0.54203279  1
  C  C126  1  0.35613313  0.19178852  0.40415640  1
  C  C127  1  0.33956613  0.14587900  0.39902224  1
  C  C128  1  0.37742806  0.09912124  0.42039016  1
  C  C129  1  0.43192630  0.09835289  0.44679903  1
  C  C130  1  0.44907082  0.14466070  0.45106232  1
  C  C131  1  0.41106128  0.19134439  0.42987866  1
  C  C132  1  0.46885602  0.05095686  0.46945828  1
  C  C133  1  0.45073923  0.00426039  0.46631612  1
  C  C134  1  0.48672531  0.95625541  0.49028855  1
  C  C135  1  0.54079562  0.95498121  0.51746235  1
  C  C136  1  0.55941447  0.00197389  0.51985953  1
  C  C137  1  0.52342940  0.05001628  0.49581784  1
  C  C138  1  0.57582649  0.90643293  0.54279558  1
  C  C139  1  0.55715506  0.85968294  0.54001707  1
  C  C140  1  0.59124449  0.81056422  0.56649919  1
  C  C141  1  0.64386687  0.80814524  0.59597607  1
  C  C142  1  0.66297031  0.85514732  0.59817613  1
  C  C143  1  0.62902596  0.90437537  0.57142334  1
  C  C144  1  0.85613313  0.80814524  0.59597607  1
  C  C145  1  0.89677360  0.81807866  0.62882008  1
  C  C146  1  0.93513234  0.86452396  0.60415925  1
  C  C147  1  0.93290227  0.90096706  0.54661518  1
  C  C148  1  0.89303712  0.89051095  0.51358863  1
  C  C149  1  0.85449362  0.84416308  0.53830519  1
  C  C150  1  0.97012224  0.94818055  0.52230451  1
  C  C151  1  0.00877281  0.95917771  0.55570823  1
  C  C152  1  0.04479934  0.00715725  0.53173547  1
  C  C153  1  0.04206841  0.04415205  0.47434357  1
  C  C154  1  0.00412602  0.03272906  0.44079333  1
  C  C155  1  0.96813599  0.98468979  0.46478625  1
  C  C156  1  0.07678660  0.09289699  0.45067050  1
  C  C157  1  0.11487008  0.10395551  0.48436607  1
  C  C158  1  0.14852801  0.15334561  0.46109723  1
  C  C159  1  0.14386687  0.19178852  0.40415640  1
  C  C160  1  0.10633136  0.18040499  0.37030449  1
  C  C161  1  0.07291264  0.13084635  0.39355004  1
  C  C162  1  0.14386542  0.40405750  0.19188675  1
  C  C163  1  0.16957327  0.44108223  0.14022990  1
  C  C164  1  0.13423318  0.46260440  0.09188679  1
  C  C165  1  0.07319873  0.44698816  0.09522832  1
  C  C166  1  0.04773920  0.40916945  0.14676412  1
  C  C167  1  0.08304268  0.38781964  0.19514902  1
  C  C168  1  0.03755423  0.46975380  0.04702458  1
  C  C169  1  0.06283071  0.50861192  0.99582666  1
  C  C170  1  0.02686521  0.53261284  0.94780925  1
  C  C171  1  0.96558880  0.51776489  0.95106621  1
  C  C172  1  0.94052834  0.47825428  0.00210878  1
  C  C173  1  0.97654428  0.45420627  0.05013124  1
  C  C174  1  0.92925629  0.54297615  0.90333698  1
  C  C175  1  0.95462822  0.58222838  0.85237429  1
  C  C176  1  0.91810502  0.60859749  0.80478658  1
  C  C177  1  0.85613459  0.59587626  0.80824573  1
  C  C178  1  0.83089583  0.55608362  0.85910509  1
  C  C179  1  0.86752367  0.52949286  0.90664510  1
  C  C180  1  0.35613458  0.40405750  0.19188674  1
  C  C181  1  0.37655998  0.37184431  0.16924140  1
  C  C182  1  0.40970024  0.39666805  0.11951488  1
  C  C183  1  0.42229617  0.45374954  0.09239523  1
  C  C184  1  0.40093619  0.48619870  0.11448796  1
  C  C185  1  0.36799245  0.46130732  0.16435682  1
  C  C186  1  0.45685591  0.47814320  0.04350933  1
  C  C187  1  0.47939259  0.44524216  0.02237933  1
  C  C188  1  0.51537603  0.46921614  0.97437320  1
  C  C189  1  0.52885605  0.52610220  0.94757278  1
  C  C190  1  0.50554002  0.55919622  0.96819316  1
  C  C191  1  0.46948595  0.53520542  0.01619165  1
  C  C192  1  0.56626965  0.54969093  0.90052341  1
  C  C193  1  0.58918767  0.51646842  0.87992848  1
  C  C194  1  0.62788149  0.53957981  0.83370580  1
  C  C195  1  0.64386542  0.59587626  0.80824573  1
  C  C196  1  0.62032563  0.62929166  0.82843007  1
  C  C197  1  0.58135319  0.60621974  0.87449565  1
  O  O198  1  0.30179204  0.25604556  0.40846413  1
  O  O199  1  0.30179204  0.40836221  0.33559032  1
  O  O200  1  0.30179204  0.33548845  0.25615311  1
  O  O201  1  0.30179204  0.25604415  0.33559269  1
  O  O202  1  0.30179204  0.40836157  0.25615198  1
  O  O203  1  0.30179204  0.33549050  0.40846290  1
  O  O204  1  0.19820796  0.25604556  0.40846413  1
  O  O205  1  0.19820796  0.40836221  0.33559032  1
  O  O206  1  0.19820796  0.33548845  0.25615311  1
  O  O207  1  0.19820796  0.25604415  0.33559269  1
  O  O208  1  0.19820796  0.40836157  0.25615198  1
  O  O209  1  0.19820796  0.33549050  0.40846290  1
  O  O210  1  0.25000413  0.33333333  0.33336759  1
  O  O211  1  0.80179205  0.74388820  0.59166834  1
  O  O212  1  0.80179205  0.59157155  0.66454216  1
  O  O213  1  0.80179205  0.66444531  0.74397937  1
  O  O214  1  0.80179205  0.74388961  0.66453979  1
  O  O215  1  0.80179205  0.59157219  0.74398050  1
  O  O216  1  0.80179205  0.66444326  0.59166958  1
  O  O217  1  0.69820796  0.74388820  0.59166834  1
  O  O218  1  0.69820796  0.59157155  0.66454216  1
  O  O219  1  0.69820796  0.66444531  0.74397937  1
  O  O220  1  0.69820796  0.74388961  0.66453979  1
  O  O221  1  0.69820796  0.59157219  0.74398050  1
  O  O222  1  0.69820796  0.66444326  0.59166958  1
  O  O223  1  0.75000413  0.66663031  0.66670302  1
