# generated using pymatgen
data_Al3H36C60O13
_symmetry_space_group_name_H-M   'P 1'
_cell_length_a   24.20642106
_cell_length_b   30.52452365
_cell_length_c   30.52484961
_cell_angle_alpha   119.99964429
_cell_angle_beta   89.99999438
_cell_angle_gamma   89.99999999
_symmetry_Int_Tables_number   1
_chemical_formula_structural   Al3H36C60O13
_chemical_formula_sum   'Al6 H72 C120 O26'
_cell_volume   19532.83133728
_cell_formula_units_Z   2
loop_
 _symmetry_equiv_pos_site_id
 _symmetry_equiv_pos_as_xyz
  1  'x, y, z'
loop_
 _atom_site_type_symbol
 _atom_site_label
 _atom_site_symmetry_multiplicity
 _atom_site_fract_x
 _atom_site_fract_y
 _atom_site_fract_z
 _atom_site_occupancy
  Al  Al0  1  0.24999586  0.69950408  0.39901406  1
  Al  Al1  1  0.24999587  0.60108141  0.30059220  1
  Al  Al2  1  0.24999587  0.69950796  0.30059373  1
  Al  Al3  1  0.74999587  0.30056216  0.60111842  1
  Al  Al4  1  0.74999587  0.39898483  0.69954028  1
  Al  Al5  1  0.74999587  0.30055828  0.69953875  1
  H  H6  1  0.19937901  0.85266104  0.37738247  1
  H  H7  1  0.13337426  0.93402250  0.41472439  1
  H  H8  1  0.01168447  0.85661129  0.47258826  1
  H  H9  1  0.07798141  0.77541449  0.43563317  1
  H  H10  1  0.08781858  0.99376230  0.44419466  1
  H  H11  1  0.02518952  0.07743822  0.48607765  1
  H  H12  1  0.90163934  0.99974100  0.54209618  1
  H  H13  1  0.96428366  0.91605613  0.50017211  1
  H  H14  1  0.98034897  0.13757003  0.51626775  1
  H  H15  1  0.92109521  0.22310208  0.56226983  1
  H  H16  1  0.79936046  0.14745927  0.62194855  1
  H  H17  1  0.85832837  0.06172948  0.57543822  1
  H  H18  1  0.67283564  0.16409741  0.65076315  1
  H  H19  1  0.60569706  0.08344899  0.61212714  1
  H  H20  1  0.53660403  0.12778391  0.49770724  1
  H  H21  1  0.60414059  0.20820112  0.53606319  1
  H  H22  1  0.56001520  0.02378855  0.58245723  1
  H  H23  1  0.49739790  0.94010524  0.54060935  1
  H  H24  1  0.42583781  0.98510769  0.42751021  1
  H  H25  1  0.48845407  0.06881019  0.46940330  1
  H  H26  1  0.45259520  0.87994964  0.51048860  1
  H  H27  1  0.39443673  0.79372878  0.46575978  1
  H  H28  1  0.32562142  0.83609236  0.34985448  1
  H  H29  1  0.38334418  0.92260520  0.39498421  1
  H  H30  1  0.43120111  0.57995414  0.35049752  1
  H  H31  1  0.49572389  0.54309689  0.39593364  1
  H  H32  1  0.35569850  0.57094349  0.51095329  1
  H  H33  1  0.29098215  0.60738161  0.46520071  1
  H  H34  1  0.54095674  0.51373183  0.42651138  1
  H  H35  1  0.60366227  0.47182306  0.46823044  1
  H  H36  1  0.46518022  0.50161886  0.58511264  1
  H  H37  1  0.40250259  0.54355457  0.54338443  1
  H  H38  1  0.64862613  0.44159206  0.49805371  1
  H  H39  1  0.70937632  0.39509913  0.53615183  1
  H  H40  1  0.56970748  0.42102882  0.65082706  1
  H  H41  1  0.50922783  0.46803501  0.61305407  1
  H  H42  1  0.06444227  0.64122872  0.40903156  1
  H  H43  1  0.00055893  0.59537803  0.44587648  1
  H  H44  1  0.14956411  0.49692663  0.44024688  1
  H  H45  1  0.21358599  0.54313214  0.40382481  1
  H  H46  1  0.95541566  0.56475283  0.47525044  1
  H  H47  1  0.89269631  0.52303846  0.51715521  1
  H  H48  1  0.04044466  0.42250657  0.50953869  1
  H  H49  1  0.10313777  0.46422465  0.46760259  1
  H  H50  1  0.84770245  0.49322955  0.54738169  1
  H  H51  1  0.78632688  0.45553223  0.59388204  1
  H  H52  1  0.93480641  0.35754233  0.59018004  1
  H  H53  1  0.99597483  0.39486118  0.54315298  1
  H  H54  1  0.78217903  0.42713643  0.86429214  1
  H  H55  1  0.84546554  0.46405111  0.94736209  1
  H  H56  1  0.00289056  0.42218742  0.84748128  1
  H  H57  1  0.93955459  0.38568508  0.76442336  1
  H  H58  1  0.89067524  0.49341668  0.00731881  1
  H  H59  1  0.95334866  0.53532614  0.09096593  1
  H  H60  1  0.11131000  0.49156069  0.99163175  1
  H  H61  1  0.04859990  0.44962733  0.90798916  1
  H  H62  1  0.99829972  0.56555716  0.15102760  1
  H  H63  1  0.06019601  0.61199529  0.23489698  1
  H  H64  1  0.21840929  0.57202817  0.13631713  1
  H  H65  1  0.15648902  0.52509065  0.05244485  1
  H  H66  1  0.40554978  0.66945743  0.21342314  1
  H  H67  1  0.47196317  0.62600337  0.13231949  1
  H  H68  1  0.38402324  0.47211222  0.07790040  1
  H  H69  1  0.31725663  0.51570424  0.15880100  1
  H  H70  1  0.51747298  0.59567193  0.07255147  1
  H  H71  1  0.58013264  0.55392315  0.98889569  1
  H  H72  1  0.49454653  0.39915326  0.93507289  1
  H  H73  1  0.43191467  0.44092932  0.01876470  1
  H  H74  1  0.62500185  0.52402235  0.92878254  1
  H  H75  1  0.68389747  0.48400039  0.84302621  1
  H  H76  1  0.59582253  0.32990747  0.78672556  1
  H  H77  1  0.53737100  0.36983720  0.87277914  1
  C  C78  1  0.17988224  0.76019119  0.38014651  1
  C  C79  1  0.17988224  0.61995532  0.38014433  1
  C  C80  1  0.17988225  0.61995349  0.23990917  1
  C  C81  1  0.32011776  0.76019119  0.38014650  1
  C  C82  1  0.32011776  0.61995531  0.38014432  1
  C  C83  1  0.32011776  0.61995349  0.23990916  1
  C  C84  1  0.67988224  0.23987505  0.61998598  1
  C  C85  1  0.67988224  0.38011092  0.61998816  1
  C  C86  1  0.67988224  0.38011275  0.76022332  1
  C  C87  1  0.82011776  0.23987505  0.61998597  1
  C  C88  1  0.82011776  0.38011092  0.61998815  1
  C  C89  1  0.82011775  0.38011274  0.76022331  1
  C  C90  1  0.14386687  0.80821147  0.40415640  1
  C  C91  1  0.15952618  0.85355018  0.39773198  1
  C  C92  1  0.12160132  0.90026836  0.41913681  1
  C  C93  1  0.06794618  0.90156691  0.44687492  1
  C  C94  1  0.05168831  0.85581669  0.45243966  1
  C  C95  1  0.08976540  0.80917548  0.43121642  1
  C  C96  1  0.03098393  0.94894249  0.46955203  1
  C  C97  1  0.04824310  0.99509962  0.46509189  1
  C  C98  1  0.01225606  0.04310401  0.48906368  1
  C  C99  1  0.95904486  0.04491846  0.51755541  1
  C  C100  1  0.94126492  0.99845336  0.52127942  1
  C  C101  1  0.97724935  0.95041056  0.49723847  1
  C  C102  1  0.92404717  0.09348761  0.54287103  1
  C  C103  1  0.94187148  0.13970488  0.53876582  1
  C  C104  1  0.90784221  0.18886143  0.56521107  1
  C  C105  1  0.85613313  0.19185477  0.59597608  1
  C  C106  1  0.83786265  0.14537651  0.59951099  1
  C  C107  1  0.87174006  0.09610636  0.57279757  1
  C  C108  1  0.64386686  0.19185476  0.59597608  1
  C  C109  1  0.64395469  0.15630844  0.61813642  1
  C  C110  1  0.60536429  0.11000880  0.59598306  1
  C  C111  1  0.56660132  0.09934508  0.55172461  1
  C  C112  1  0.56568863  0.13544524  0.53019047  1
  C  C113  1  0.60448008  0.18163720  0.55221664  1
  C  C114  1  0.52929113  0.05218832  0.52867843  1
  C  C115  1  0.53151355  0.01548728  0.54944606  1
  C  C116  1  0.49551251  0.96749171  0.52548040  1
  C  C117  1  0.45735626  0.95620971  0.48068686  1
  C  C118  1  0.45440820  0.99334756  0.46046372  1
  C  C119  1  0.49038701  0.04139388  0.48449168  1
  C  C120  1  0.42271557  0.90741605  0.45573906  1
  C  C121  1  0.42560580  0.87059031  0.47631406  1
  C  C122  1  0.39220759  0.82103691  0.45060743  1
  C  C123  1  0.35613314  0.80821148  0.40415640  1
  C  C124  1  0.35264647  0.84539271  0.38398546  1
  C  C125  1  0.38581624  0.89510789  0.40990109  1
  C  C126  1  0.35613402  0.59594433  0.40415525  1
  C  C127  1  0.41510027  0.57792905  0.38454903  1
  C  C128  1  0.45218665  0.55679843  0.41066384  1
  C  C129  1  0.43030260  0.55379884  0.45646696  1
  C  C130  1  0.37170953  0.57274763  0.47673690  1
  C  C131  1  0.33453098  0.59367699  0.45046002  1
  C  C132  1  0.46688947  0.53124427  0.48152402  1
  C  C133  1  0.52484477  0.51107181  0.46020873  1
  C  C134  1  0.56087596  0.48708515  0.48419869  1
  C  C135  1  0.53885348  0.48323189  0.52947192  1
  C  C136  1  0.48127083  0.50418899  0.55135701  1
  C  C137  1  0.44526065  0.52823878  0.52738021  1
  C  C138  1  0.57420509  0.45779993  0.55238656  1
  C  C139  1  0.63185727  0.43718674  0.53052591  1
  C  C140  1  0.66676296  0.41045402  0.55239862  1
  C  C141  1  0.64386598  0.40412191  0.59597723  1
  C  C142  1  0.58647852  0.42536483  0.61832072  1
  C  C143  1  0.55170466  0.45237228  0.59662174  1
  C  C144  1  0.14386598  0.59594434  0.40415525  1
  C  C145  1  0.08257524  0.61062245  0.41578020  1
  C  C146  1  0.04586051  0.58426456  0.43690153  1
  C  C147  1  0.07045518  0.54314095  0.44628575  1
  C  C148  1  0.13149215  0.52771697  0.43372024  1
  C  C149  1  0.16827194  0.55425474  0.41280095  1
  C  C150  1  0.03405524  0.51795729  0.46883130  1
  C  C151  1  0.97348671  0.53453906  0.48262639  1
  C  C152  1  0.93745608  0.51054443  0.50660874  1
  C  C153  1  0.96208652  0.47001097  0.51684232  1
  C  C154  1  0.02238396  0.45278547  0.50225254  1
  C  C155  1  0.05839948  0.47676013  0.47820396  1
  C  C156  1  0.92654673  0.44722586  0.54228543  1
  C  C157  1  0.86620847  0.46439155  0.55651398  1
  C  C158  1  0.83094080  0.44274988  0.58325005  1
  C  C159  1  0.85613402  0.40412190  0.59597723  1
  C  C160  1  0.91629056  0.38641855  0.58111635  1
  C  C161  1  0.95146022  0.40785915  0.55409948  1
  C  C162  1  0.85613459  0.40412374  0.80824575  1
  C  C163  1  0.82911477  0.42619080  0.86072754  1
  C  C164  1  0.86545269  0.44735622  0.90844316  1
  C  C165  1  0.92883271  0.44633757  0.90362668  1
  C  C166  1  0.95592790  0.42335104  0.85106239  1
  C  C167  1  0.91955377  0.40238425  0.80335078  1
  C  C168  1  0.96498237  0.46891227  0.95151275  1
  C  C169  1  0.93761434  0.49310529  0.00402586  1
  C  C170  1  0.97358460  0.51709435  0.05204028  1
  C  C171  1  0.03693623  0.51692420  0.04747838  1
  C  C172  1  0.06436666  0.49196116  0.99494554  1
  C  C173  1  0.02836407  0.46791148  0.94691469  1
  C  C174  1  0.07275850  0.54233352  0.09552848  1
  C  C175  1  0.04510636  0.56696638  0.14792500  1
  C  C176  1  0.08066202  0.59366801  0.19612115  1
  C  C177  1  0.14386541  0.59594250  0.19188674  1
  C  C178  1  0.17160762  0.57068813  0.13945316  1
  C  C179  1  0.13604214  0.54371844  0.09124508  1
  C  C180  1  0.35613458  0.59594251  0.19188676  1
  C  C181  1  0.40088899  0.62751545  0.18454080  1
  C  C182  1  0.43907183  0.60255901  0.13798533  1
  C  C183  1  0.43254324  0.54598080  0.09883915  1
  C  C184  1  0.38850966  0.51412833  0.10667351  1
  C  C185  1  0.35015481  0.53916211  0.15313957  1
  C  C186  1  0.46967659  0.52151941  0.05157166  1
  C  C187  1  0.51257477  0.55388460  0.04324607  1
  C  C188  1  0.54860265  0.52990945  0.99526788  1
  C  C189  1  0.54162490  0.47356177  0.95560252  1
  C  C190  1  0.49939045  0.44096561  0.96432598  1
  C  C191  1  0.46339765  0.46495480  0.01236300  1
  C  C192  1  0.57642855  0.45004172  0.90691187  1
  C  C193  1  0.61879829  0.48275233  0.89854923  1
  C  C194  1  0.65262944  0.45976891  0.84926863  1
  C  C195  1  0.64386542  0.40412373  0.80824572  1
  C  C196  1  0.60200469  0.37119047  0.81690887  1
  C  C197  1  0.56839923  0.39412116  0.86634949  1
  O  O198  1  0.19820795  0.74395444  0.40846414  1
  O  O199  1  0.19820796  0.59163779  0.33559033  1
  O  O200  1  0.19820796  0.66451155  0.25615311  1
  O  O201  1  0.19820796  0.74395585  0.33559269  1
  O  O202  1  0.19820796  0.59163843  0.25615198  1
  O  O203  1  0.19820795  0.66450951  0.40846290  1
  O  O204  1  0.30179204  0.74395444  0.40846413  1
  O  O205  1  0.30179204  0.59163779  0.33559032  1
  O  O206  1  0.30179205  0.66451155  0.25615311  1
  O  O207  1  0.30179204  0.74395585  0.33559269  1
  O  O208  1  0.30179205  0.59163843  0.25615197  1
  O  O209  1  0.30179204  0.66450950  0.40846290  1
  O  O210  1  0.24999587  0.66666667  0.33333333  1
  O  O211  1  0.69820796  0.25611180  0.59166835  1
  O  O212  1  0.69820796  0.40842845  0.66454216  1
  O  O213  1  0.69820795  0.33555469  0.74397938  1
  O  O214  1  0.69820796  0.25611039  0.66453979  1
  O  O215  1  0.69820795  0.40842781  0.74398051  1
  O  O216  1  0.69820796  0.33555674  0.59166959  1
  O  O217  1  0.80179205  0.25611180  0.59166834  1
  O  O218  1  0.80179204  0.40842845  0.66454216  1
  O  O219  1  0.80179204  0.33555469  0.74397937  1
  O  O220  1  0.80179204  0.25611039  0.66453979  1
  O  O221  1  0.80179204  0.40842781  0.74398050  1
  O  O222  1  0.80179205  0.33555673  0.59166958  1
  O  O223  1  0.74999587  0.33333333  0.66666667  1
