data_acs_v1-6c_Al_1_1-1B_4H_Ch
_audit_creation_date              2021-04-21
_audit_creation_method            'tobacco_3.0'
_symmetry_space_group_name_H-M    'P1'
_symmetry_Int_Tables_number       1
_symmetry_cell_setting            triclinic
loop_
_symmetry_equiv_pos_as_xyz
  x,y,z
_cell_length_a                    17.35650250474811
_cell_length_b                    17.35631843602324
_cell_length_c                    13.763818365720324
_cell_angle_alpha                 90.00000070487967
_cell_angle_beta                  90.00000095378616
_cell_angle_gamma                 119.99980701021954
loop_
_atom_site_label
_atom_site_type_symbol
_atom_site_fract_x
_atom_site_fract_y
_atom_site_fract_z
_atom_site_charge
O1         O    0.4653152633    0.6628481249    0.6589133590          0.5398
O2         O    0.3371523311    0.8025639893    0.6589133588          0.5398
O3         O    0.1974457079    0.5346945357    0.6589133553          0.5398
O4         O    0.3371560770    0.5346864720    0.6589133568          0.5398
O5         O    0.1974439157    0.6628544595    0.6589133563          0.5398
O6         O    0.4653133096    0.8025657185    0.6589133601          0.5398
C7         C    0.4155129385    0.5844902843    0.6266839294          0.5398
C8         C    0.4155094898    0.8311192043    0.6266839313          0.5398
C9         C    0.1688775671    0.5844905073    0.6266839269          0.5398
O10        O    0.4653152656    0.6628481270    0.8410866436          0.5398
O11        O    0.3371523333    0.8025639913    0.8410866434          0.5398
O12        O    0.1974457101    0.5346945377    0.8410866399          0.5398
O13        O    0.3371560792    0.5346864740    0.8410866413          0.5398
O14        O    0.1974439180    0.6628544615    0.8410866409          0.5398
O15        O    0.4653133118    0.8025657205    0.8410866447          0.5398
Al16      Al    0.4486955226    0.7244030879    0.7499927362             1.0
Al17      Al    0.2756010283    0.7244042254    0.7499927344             1.0
Al18      Al    0.2756034489    0.5513042097    0.7499927331             1.0
O19        O    0.3332955647    0.6667016234    0.7499927346          0.5398
C20        C    0.4155129416    0.5844902870    0.8733160710          0.5398
C21        C    0.4155094928    0.8311192070    0.8733160729          0.5398
C22        C    0.1688775702    0.5844905101    0.8733160685          0.5398
O23        O    0.5346166379    0.3372175450    0.1589133555          0.5398
O24        O    0.6627795702    0.1975016807    0.1589133558          0.5398
O25        O    0.8024861934    0.4653711343    0.1589133592          0.5398
O26        O    0.6627758243    0.4653791980    0.1589133578          0.5398
O27        O    0.8024879855    0.3372112105    0.1589133583          0.5398
O28        O    0.5346185917    0.1974999515    0.1589133545          0.5398
C29        C    0.5844189619    0.4155753850    0.1266839281          0.5398
C30        C    0.5844224107    0.1689464650    0.1266839263          0.5398
C31        C    0.8310543333    0.4155751619    0.1266839307          0.5398
O32        O    0.5346166402    0.3372175471    0.3410866401          0.5398
O33        O    0.6627795724    0.1975016827    0.3410866404          0.5398
O34        O    0.8024861956    0.4653711363    0.3410866438          0.5398
O35        O    0.6627758265    0.4653792000    0.3410866424          0.5398
O36        O    0.8024879878    0.3372112126    0.3410866429          0.5398
O37        O    0.5346185940    0.1974999535    0.3410866391          0.5398
Al38      Al    0.5512363809    0.2756625841    0.2499927321             1.0
Al39      Al    0.7243308752    0.2756614466    0.2499927339             1.0
Al40      Al    0.7243284546    0.4487614623    0.2499927352             1.0
O41        O    0.6666363388    0.3333640486    0.2499927337          0.5398
C42        C    0.5844189650    0.4155753877    0.3733160697          0.5398
C43        C    0.5844224137    0.1689464678    0.3733160679          0.5398
C44        C    0.8310543364    0.4155751647    0.3733160722 0.5401999999999999
C95        C    0.0688976431    0.4694165525    0.0107938189         -0.5907
C96        C    0.0844219912    0.5422617881    0.9366578614         -0.3692
C97        C    0.0154902998    0.5728780716    0.9258640421         -0.5907
C98        C    0.9310342604    0.5306491195    0.9892061803         -0.5907
C99        C    0.9155099123    0.4578038839    0.0633421378         -0.3692
C100       C    0.9844416037    0.4271876004    0.0741359571         -0.5907
H101       H    0.1199249990    0.4467525505    0.0187840487         -0.3294
H102       H    0.0269791856    0.6267988250    0.8709885283         -0.3294
H103       H    0.8800069045    0.5533131215    0.9812159504         -0.3294
H104       H    0.9729527179    0.3732668470    0.1290114709         -0.3294
C85        C    0.0678303444    0.6000440210    0.4909009766         -0.5907
C86        C    0.0844219936    0.5422617887    0.5633421388         -0.3692
C87        C    0.0165576009    0.4422506037    0.5724411618         -0.5907
C88        C    0.9321015591    0.4000216510    0.5090990226         -0.5907
C89        C    0.9155099100    0.4578038833    0.4366578603         -0.3692
C90        C    0.9833743026    0.5578150683    0.4275588373         -0.5907
H91        H    0.1180676221    0.6740782749    0.4841653362         -0.3294
H92        H    0.0288365329    0.3994772356    0.6260621407         -0.3294
H93        H    0.8818642814    0.3259873971    0.5158346630         -0.3294
H94        H    0.9710953706    0.6005884364    0.3739378585         -0.3294
C75        C    0.5494014932    0.9481112401    0.5162560103         -0.5907
C76        C    0.4577376434    0.9155758654    0.5633420815         -0.3692
C77        C    0.4083021020    0.9674974613    0.5470860707         -0.5907
C78        C    0.4505304104    0.0519544319    0.4837439888         -0.5907
C79        C    0.5421942601    0.0844898066    0.4366579177         -0.3692
C80        C    0.5916298015    0.0325682108    0.4529139284         -0.5907
H81        H    0.5859966342    0.9096757731    0.5282896806         -0.3294
H82        H    0.3404512817    0.9434165357    0.5819384988         -0.3294
H83        H    0.4139352693    0.0903898990    0.4717103185         -0.3294
H84        H    0.6594806218    0.0566491364    0.4180615004         -0.3294
C65        C    0.4317549000    0.9875195693    0.9210798368         -0.5907
C66        C    0.4577376430    0.9155758629    0.9366579172         -0.3692
C67        C    0.5259486947    0.9280891296    0.0155780801         -0.5907
C68        C    0.5681770035    0.0125461027    0.0789201624         -0.5907
C69        C    0.5421942605    0.0844898091    0.0633420819         -0.3692
C70        C    0.4739832088    0.0719765424    0.9844219191         -0.5907
H71        H    0.3812610046    0.9782565018    0.8626584175         -0.3294
H72        H    0.5451831873    0.8748370498    0.0271114175         -0.3294
H73        H    0.6186708989    0.0218091703    0.1373415816         -0.3294
H74        H    0.4547487162    0.1252286223    0.9728885817         -0.3294
C55        C    0.4499210020    0.3988386534    0.0174828470         -0.5907
C56        C    0.5421930052    0.4578035621    0.0633427864         -0.3692
C57        C    0.5922379550    0.5589977447    0.0458599390         -0.5907
C58        C    0.5500109015    0.6012270186    0.9825171521         -0.5907
C59        C    0.4577388983    0.5422621099    0.9366572127         -0.3692
C60        C    0.4076939485    0.4410679274    0.9541400602         -0.5907
H61        H    0.4128747404    0.3239286741    0.0304246951         -0.3294
H62        H    0.6605389477    0.6026465630    0.0798047499         -0.3294
H63        H    0.5870571631    0.6761369979    0.9695753040         -0.3294
H64        H    0.3393929559    0.3974191090    0.9201952493         -0.3294
C45        C    0.4392643548    0.5308292634    0.4533228081         -0.5907
C46        C    0.4577388971    0.5422621083    0.5633427867         -0.3692
C47        C    0.5184404941    0.5114656808    0.6100199781         -0.5907
C48        C    0.5606675487    0.4692364086    0.5466771911         -0.5907
C49        C    0.5421930065    0.4578035638    0.4366572125         -0.3692
C50        C    0.4814914095    0.4885999912    0.3899800210         -0.5907
H51        H    0.3943294063    0.5536266188    0.4187695625         -0.3294
H52        H    0.5321172056    0.5199272573    0.6914578524         -0.3294
H53        H    0.6056024972    0.4464390532    0.5812304367         -0.3294
H54        H    0.4678146979    0.4801384147    0.3085421467         -0.3294
loop_
_geom_bond_atom_site_label_1
_geom_bond_atom_site_label_2
_geom_bond_distance
_geom_bond_site_symmetry_2
_ccdc_geom_bond_type
O1         Al16 1.762       .   S
O1           C7 1.272       .   A
O2         Al17 1.762       .   S
O2           C8 1.272       .   A
O3         Al18 1.762       .   S
O3           C9 1.272       .   A
O4         Al18 1.762       .   S
O4           C7 1.272       .   A
O5         Al17 1.762       .   S
O5           C9 1.272       .   A
O6         Al16 1.762       .   S
O6           C8 1.272       .   A
C7          C46 1.540       .   S
C8          C76 1.540       .   S
C9          C86 1.540       .   S
O10        Al16 1.762       .   S
O10         C20 1.272       .   A
O11        Al17 1.762       .   S
O11         C21 1.272       .   A
O12        Al18 1.762       .   S
O12         C22 1.272       .   A
O13        Al18 1.762       .   S
O13         C20 1.272       .   A
O14        Al17 1.762       .   S
O14         C22 1.272       .   A
O15        Al16 1.762       .   S
O15         C21 1.272       .   A
Al16        O19 1.735       .   S
Al17        O19 1.735       .   S
Al18        O19 1.735       .   S
C20         C59 1.540       .   S
C21         C66 1.540       .   S
C22         C96 1.540       .   S
O23        Al38 1.762       .   S
O23         C29 1.272       .   A
O24        Al39 1.762       .   S
O24         C30 1.272       .   A
O25        Al40 1.762       .   S
O25         C31 1.272       .   A
O26        Al40 1.762       .   S
O26         C29 1.272       .   A
O27        Al39 1.762       .   S
O27         C31 1.272       .   A
O28        Al38 1.762       .   S
O28         C30 1.272       .   A
C29         C56 1.540   1_554   S
C30         C69 1.540   1_544   S
C31         C99 1.540   1_654   S
O32        Al38 1.762       .   S
O32         C42 1.272       .   A
O33        Al39 1.762       .   S
O33         C43 1.272       .   A
O34        Al40 1.762       .   S
O34         C44 1.272       .   A
O35        Al40 1.762       .   S
O35         C42 1.272       .   A
O36        Al39 1.762       .   S
O36         C44 1.272       .   A
O37        Al38 1.762       .   S
O37         C43 1.272       .   A
Al38        O41 1.735       .   S
Al39        O41 1.735       .   S
Al40        O41 1.735       .   S
C42         C49 1.540       .   S
C43         C79 1.540   1_545   S
C44         C89 1.540   1_655   S
C95         C96 1.540       .   A
C95        C100 1.540       .   A
C95        H101 1.140       .   S
C96         C97 1.540       .   A
C97         C98 1.540       .   A
C97        H102 1.140       .   S
C98         C99 1.540       .   A
C98        H103 1.140       .   S
C99        C100 1.540       .   A
C100       H104 1.140       .   S
C85         C86 1.540       .   A
C85         C90 1.540       .   A
C85         H91 1.140       .   S
C86         C87 1.540       .   A
C87         C88 1.540       .   A
C87         H92 1.140       .   S
C88         C89 1.540       .   A
C88         H93 1.140       .   S
C89         C90 1.540       .   A
C90         H94 1.140       .   S
C75         C76 1.540       .   A
C75         C80 1.540       .   A
C75         H81 1.140       .   S
C76         C77 1.540       .   A
C77         C78 1.540       .   A
C77         H82 1.140       .   S
C78         C79 1.540       .   A
C78         H83 1.140       .   S
C79         C80 1.540       .   A
C80         H84 1.140       .   S
C65         C66 1.540       .   A
C65         C70 1.540       .   A
C65         H71 1.140       .   S
C66         C67 1.540       .   A
C67         C68 1.540       .   A
C67         H72 1.140       .   S
C68         C69 1.540       .   A
C68         H73 1.140       .   S
C69         C70 1.540       .   A
C70         H74 1.140       .   S
C55         C56 1.540       .   A
C55         C60 1.540       .   A
C55         H61 1.140       .   S
C56         C57 1.540       .   A
C57         C58 1.540       .   A
C57         H62 1.140       .   S
C58         C59 1.540       .   A
C58         H63 1.140       .   S
C59         C60 1.540       .   A
C60         H64 1.140       .   S
C45         C46 1.540       .   A
C45         C50 1.540       .   A
C45         H51 1.140       .   S
C46         C47 1.540       .   A
C47         C48 1.540       .   A
C47         H52 1.140       .   S
C48         C49 1.540       .   A
C48         H53 1.140       .   S
C49         C50 1.540       .   A
C50         H54 1.140       .   S
