# generated using pymatgen
data_Al3H36C60O13
_symmetry_space_group_name_H-M   'P 1'
_cell_length_a   24.20642122
_cell_length_b   30.52452354
_cell_length_c   30.52484974
_cell_angle_alpha   60.00035400
_cell_angle_beta   90.00000101
_cell_angle_gamma   90.00000113
_symmetry_Int_Tables_number   1
_chemical_formula_structural   Al3H36C60O13
_chemical_formula_sum   'Al6 H72 C120 O26'
_cell_volume   19532.83114075
_cell_formula_units_Z   2
loop_
 _symmetry_equiv_pos_site_id
 _symmetry_equiv_pos_as_xyz
  1  'x, y, z'
loop_
 _atom_site_type_symbol
 _atom_site_label
 _atom_site_symmetry_multiplicity
 _atom_site_fract_x
 _atom_site_fract_y
 _atom_site_fract_z
 _atom_site_occupancy
  Al  Al0  1  0.25000413  0.30049592  0.39901406  1
  Al  Al1  1  0.25000413  0.39891859  0.30059220  1
  Al  Al2  1  0.25000413  0.30049204  0.30059373  1
  Al  Al3  1  0.75000412  0.69943784  0.60111841  1
  Al  Al4  1  0.75000412  0.60101517  0.69954027  1
  Al  Al5  1  0.75000412  0.69944172  0.69953874  1
  H  H6  1  0.78200755  0.56745731  0.56824322  1
  H  H7  1  0.84495436  0.53046875  0.52194734  1
  H  H8  1  0.00257826  0.58311506  0.56930864  1
  H  H9  1  0.93961184  0.61969899  0.61601588  1
  H  H10  1  0.89011898  0.50109800  0.49133238  1
  H  H11  1  0.95279907  0.45918712  0.44959944  1
  H  H12  1  0.11079982  0.51368544  0.49446181  1
  H  H13  1  0.04808119  0.55561773  0.53616766  1
  H  H14  1  0.99776515  0.42895630  0.41977739  1
  H  H15  1  0.05999317  0.38258650  0.38248548  1
  H  H16  1  0.21849690  0.43335950  0.43047668  1
  H  H17  1  0.15620847  0.48021499  0.46726290  1
  H  H18  1  0.29494028  0.38639979  0.46983238  1
  H  H19  1  0.36050326  0.42351390  0.51435751  1
  H  H20  1  0.49336779  0.46305035  0.39038492  1
  H  H21  1  0.42755269  0.42634092  0.34559461  1
  H  H22  1  0.40600510  0.45294538  0.54469968  1
  H  H23  1  0.46864008  0.49483673  0.58648052  1
  H  H24  1  0.60314222  0.53244726  0.46428792  1
  H  H25  1  0.54048745  0.49051720  0.42253968  1
  H  H26  1  0.51349717  0.52504137  0.61639729  1
  H  H27  1  0.57317878  0.57127044  0.65543126  1
  H  H28  1  0.70621078  0.61267712  0.53127983  1
  H  H29  1  0.64676177  0.56592541  0.49260424  1
  H  H30  1  0.67685995  0.83843334  0.64752540  1
  H  H31  1  0.61831788  0.92448783  0.60197307  1
  H  H32  1  0.54479130  0.87736481  0.49112016  1
  H  H33  1  0.60297656  0.79106686  0.53699970  1
  H  H34  1  0.57378083  0.98486821  0.57138211  1
  H  H35  1  0.51100099  0.06844930  0.52966500  1
  H  H36  1  0.43903937  0.02319437  0.41688888  1
  H  H37  1  0.50186477  0.93962338  0.45861372  1
  H  H38  1  0.46582290  0.12836885  0.49984626  1
  H  H39  1  0.39928186  0.20931816  0.46186164  1
  H  H40  1  0.32371786  0.16271058  0.35138597  1
  H  H41  1  0.39074396  0.08204830  0.38903071  1
  H  H42  1  0.07099161  0.22807884  0.42465156  1
  H  H43  1  0.00621586  0.14594448  0.46154098  1
  H  H44  1  0.14175248  0.06159194  0.42470042  1
  H  H45  1  0.20674342  0.14361004  0.38822616  1
  H  H46  1  0.96094688  0.08602438  0.49090569  1
  H  H47  1  0.89824660  0.00239325  0.53281491  1
  H  H48  1  0.03212806  0.91819765  0.49405343  1
  H  H49  1  0.09479998  0.00186517  0.45211920  1
  H  H50  1  0.85329453  0.94233157  0.56304606  1
  H  H51  1  0.79279116  0.85758538  0.60950822  1
  H  H52  1  0.92803772  0.77161856  0.57457274  1
  H  H53  1  0.98824601  0.85656831  0.52760573  1
  H  H54  1  0.93758370  0.59812270  0.76656511  1
  H  H55  1  0.00104498  0.56123643  0.84952517  1
  H  H56  1  0.84781268  0.55260658  0.94500275  1
  H  H57  1  0.78424936  0.58907197  0.86208780  1
  H  H58  1  0.04612978  0.53185055  0.90956045  1
  H  H59  1  0.10885769  0.48994994  0.99317330  1
  H  H60  1  0.95669076  0.48330785  0.08886483  1
  H  H61  1  0.89398768  0.52524236  0.00521781  1
  H  H62  1  0.15387079  0.45972900  0.05319596  1
  H  H63  1  0.21565831  0.41327319  0.13713374  1
  H  H64  1  0.06306378  0.40272232  0.23400694  1
  H  H65  1  0.00144065  0.44970814  0.14994779  1
  H  H66  1  0.43809437  0.39958229  0.23388851  1
  H  H67  1  0.50142177  0.43648976  0.15084426  1
  H  H68  1  0.34711212  0.44958494  0.05468915  1
  H  H69  1  0.28369430  0.41309703  0.13769561  1
  H  H70  1  0.54648818  0.46588059  0.09079742  1
  H  H71  1  0.60921883  0.50777997  0.00718629  1
  H  H72  1  0.45591341  0.51889089  0.91077880  1
  H  H73  1  0.39320708  0.47695686  0.99442377  1
  H  H74  1  0.65423804  0.53799898  0.94716747  1
  H  H75  1  0.71615634  0.58443323  0.86331193  1
  H  H76  1  0.56252013  0.59944521  0.76578365  1
  H  H77  1  0.50075251  0.55248078  0.84975194  1
  C  C78  1  0.32011776  0.23980881  0.38014651  1
  C  C79  1  0.32011776  0.38004468  0.38014433  1
  C  C80  1  0.32011776  0.38004651  0.23990916  1
  C  C81  1  0.17988224  0.23980881  0.38014651  1
  C  C82  1  0.17988224  0.38004468  0.38014433  1
  C  C83  1  0.17988224  0.38004651  0.23990916  1
  C  C84  1  0.82011775  0.76012496  0.61998596  1
  C  C85  1  0.82011775  0.61988908  0.61998815  1
  C  C86  1  0.82011775  0.61988725  0.76022331  1
  C  C87  1  0.67988223  0.76012495  0.61998596  1
  C  C88  1  0.67988223  0.61988908  0.61998815  1
  C  C89  1  0.67988223  0.61988725  0.76022331  1
  C  C90  1  0.85613401  0.59587810  0.59597722  1
  C  C91  1  0.82892080  0.57068246  0.56856871  1
  C  C92  1  0.86506079  0.54947299  0.54193760  1
  C  C93  1  0.92842947  0.55357654  0.54264364  1
  C  C94  1  0.95565352  0.57967549  0.56919076  1
  C  C95  1  0.91949177  0.60068957  0.59602235  1
  C  C96  1  0.96447870  0.53097717  0.51729328  1
  C  C97  1  0.93707243  0.50369251  0.49204002  1
  C  C98  1  0.97304158  0.47970068  0.46801623  1
  C  C99  1  0.03643504  0.48296415  0.46934120  1
  C  C100  1  0.06384792  0.51100295  0.49382495  1
  C  C101  1  0.02784263  0.53505316  0.51780442  1
  C  C102  1  0.07235919  0.45757989  0.44673890  1
  C  C103  1  0.04470562  0.42985915  0.42206146  1
  C  C104  1  0.08045308  0.40319656  0.40064797  1
  C  C105  1  0.14386598  0.40405567  0.40415525  1
  C  C106  1  0.17156528  0.43238790  0.42823038  1
  C  C107  1  0.13578881  0.45931181  0.44938240  1
  C  C108  1  0.35613402  0.40405566  0.40415525  1
  C  C109  1  0.33708588  0.40280733  0.45287267  1
  C  C110  1  0.37475232  0.42408118  0.47847948  1
  C  C111  1  0.43153088  0.44650445  0.45539125  1
  C  C112  1  0.45109146  0.44685367  0.40721558  1
  C  C113  1  0.41329170  0.42577091  0.38148275  1
  C  C114  1  0.46835969  0.46911876  0.48023641  1
  C  C115  1  0.44791678  0.46993282  0.52758093  1
  C  C116  1  0.48389991  0.49390762  0.55161297  1
  C  C117  1  0.54030052  0.51712543  0.52820462  1
  C  C118  1  0.56118782  0.51554443  0.48136710  1
  C  C119  1  0.52520091  0.49150038  0.45736991  1
  C  C120  1  0.57543380  0.54250347  0.55131047  1
  C  C121  1  0.55446931  0.54370432  0.59830094  1
  C  C122  1  0.58874548  0.57028160  0.62072497  1
  C  C123  1  0.64386598  0.59587810  0.59597723  1
  C  C124  1  0.66521856  0.59407798  0.54936156  1
  C  C125  1  0.63106669  0.56722411  0.52711784  1
  C  C126  1  0.64386686  0.80814524  0.59597607  1
  C  C127  1  0.64867578  0.84666050  0.61433807  1
  C  C128  1  0.61509385  0.89610980  0.58815515  1
  C  C129  1  0.57679098  0.90706287  0.54352652  1
  C  C130  1  0.57278910  0.86902002  0.52447777  1
  C  C131  1  0.60620634  0.81944839  0.55082776  1
  C  C132  1  0.54202396  0.95581896  0.51843423  1
  C  C133  1  0.54504426  0.99302175  0.53855993  1
  C  C134  1  0.50907456  0.04103704  0.51456906  1
  C  C135  1  0.47003347  0.05176259  0.47048742  1
  C  C136  1  0.46769815  0.01501008  0.44977128  1
  C  C137  1  0.50374173  0.96700448  0.47374715  1
  C  C138  1  0.43282019  0.09893843  0.44760939  1
  C  C139  1  0.43557730  0.13568045  0.46829150  1
  C  C140  1  0.39733244  0.18218595  0.44648424  1
  C  C141  1  0.35613313  0.19178852  0.40415640  1
  C  C142  1  0.35390109  0.15539630  0.38297604  1
  C  C143  1  0.39240264  0.10903411  0.40460200  1
  C  C144  1  0.14386687  0.19178852  0.40415640  1
  C  C145  1  0.08608936  0.19263254  0.42476962  1
  C  C146  1  0.04885603  0.14547947  0.44591984  1
  C  C147  1  0.06939853  0.09751974  0.44634020  1
  C  C148  1  0.12675590  0.09697503  0.42480162  1
  C  C149  1  0.16409208  0.14408218  0.40385116  1
  C  C150  1  0.03273783  0.04995452  0.46890628  1
  C  C151  1  0.97608499  0.05027894  0.49165873  1
  C  C152  1  0.94005353  0.00230250  0.51564687  1
  C  C153  1  0.96077527  0.95399332  0.51691831  1
  C  C154  1  0.01701568  0.95390874  0.49338984  1
  C  C155  1  0.05302392  0.00193656  0.46934013  1
  C  C156  1  0.92549746  0.90560033  0.54233706  1
  C  C157  1  0.86917690  0.90601106  0.56553017  1
  C  C158  1  0.83441411  0.85731580  0.59224548  1
  C  C159  1  0.85613312  0.80814524  0.59597607  1
  C  C160  1  0.91215622  0.80790198  0.57215791  1
  C  C161  1  0.94677404  0.85670650  0.54517189  1
  C  C162  1  0.85613458  0.59587626  0.80824573  1
  C  C163  1  0.91847104  0.58833297  0.80453538  1
  C  C164  1  0.95494029  0.56718890  0.85216842  1
  C  C165  1  0.92904519  0.55369697  0.90349305  1
  C  C166  1  0.86688337  0.56217587  0.90705847  1
  C  C167  1  0.83036695  0.58311954  0.85943633  1
  C  C168  1  0.96532126  0.53114282  0.95129962  1
  C  C169  1  0.02712655  0.52144383  0.94773566  1
  C  C170  1  0.06315633  0.49746443  0.99571264  1
  C  C171  1  0.03729270  0.48313373  0.04725422  1
  C  C172  1  0.97569091  0.49362568  0.05070973  1
  C  C173  1  0.93967209  0.51767273  0.00268907  1
  C  C174  1  0.07295707  0.45769875  0.09540360  1
  C  C175  1  0.13457948  0.44757638  0.09165939  1
  C  C176  1  0.17008553  0.42086668  0.13988674  1
  C  C177  1  0.14386542  0.40405750  0.19188674  1
  C  C178  1  0.08236990  0.41480736  0.19557076  1
  C  C179  1  0.04693912  0.44179896  0.14727796  1
  C  C180  1  0.35613458  0.40405750  0.19188674  1
  C  C181  1  0.41872700  0.41032591  0.19575806  1
  C  C182  1  0.45511836  0.43148190  0.14807604  1
  C  C183  1  0.42888651  0.44626184  0.09653964  1
  C  C184  1  0.36644356  0.43906090  0.09279742  1
  C  C185  1  0.33001072  0.41810446  0.14047212  1
  C  C186  1  0.46512325  0.46882119  0.04870833  1
  C  C187  1  0.52724521  0.47723711  0.05247144  1
  C  C188  1  0.56327473  0.50121573  0.00449429  1
  C  C189  1  0.53709561  0.51682987  0.95275432  1
  C  C190  1  0.47515559  0.50762285  0.94908610  1
  C  C191  1  0.43913571  0.48357621  0.99710609  1
  C  C192  1  0.57279967  0.54226003  0.90462989  1
  C  C193  1  0.63475370  0.55109530  0.90858265  1
  C  C194  1  0.67033541  0.57779235  0.86040288  1
  C  C195  1  0.64386541  0.59587626  0.80824573  1
  C  C196  1  0.58202085  0.58641606  0.80434222  1
  C  C197  1  0.54650714  0.55943724  0.85258285  1
  O  O198  1  0.30179204  0.25604556  0.40846414  1
  O  O199  1  0.30179204  0.40836221  0.33559032  1
  O  O200  1  0.30179204  0.33548845  0.25615311  1
  O  O201  1  0.30179204  0.25604415  0.33559269  1
  O  O202  1  0.30179204  0.40836157  0.25615197  1
  O  O203  1  0.30179204  0.33549050  0.40846290  1
  O  O204  1  0.19820796  0.25604556  0.40846414  1
  O  O205  1  0.19820796  0.40836221  0.33559032  1
  O  O206  1  0.19820796  0.33548845  0.25615311  1
  O  O207  1  0.19820796  0.25604415  0.33559269  1
  O  O208  1  0.19820796  0.40836157  0.25615197  1
  O  O209  1  0.19820796  0.33549049  0.40846290  1
  O  O210  1  0.25000413  0.33333333  0.33336759  1
  O  O211  1  0.80179203  0.74388821  0.59166834  1
  O  O212  1  0.80179203  0.59157155  0.66454215  1
  O  O213  1  0.80179204  0.66444531  0.74397937  1
  O  O214  1  0.80179204  0.74388961  0.66453978  1
  O  O215  1  0.80179203  0.59157219  0.74398050  1
  O  O216  1  0.80179203  0.66444327  0.59166957  1
  O  O217  1  0.69820795  0.74388820  0.59166834  1
  O  O218  1  0.69820795  0.59157155  0.66454215  1
  O  O219  1  0.69820795  0.66444531  0.74397937  1
  O  O220  1  0.69820795  0.74388961  0.66453978  1
  O  O221  1  0.69820795  0.59157219  0.74398050  1
  O  O222  1  0.69820795  0.66444327  0.59166957  1
  O  O223  1  0.75000412  0.66663032  0.66670302  1
