# generated using pymatgen
data_Al3H36C60O13
_symmetry_space_group_name_H-M   'P 1'
_cell_length_a   24.20642113
_cell_length_b   30.52452363
_cell_length_c   30.52485009
_cell_angle_alpha   60.00035428
_cell_angle_beta   89.99999738
_cell_angle_gamma   89.99999584
_symmetry_Int_Tables_number   1
_chemical_formula_structural   Al3H36C60O13
_chemical_formula_sum   'Al6 H72 C120 O26'
_cell_volume   19532.83140144
_cell_formula_units_Z   2
loop_
 _symmetry_equiv_pos_site_id
 _symmetry_equiv_pos_as_xyz
  1  'x, y, z'
loop_
 _atom_site_type_symbol
 _atom_site_label
 _atom_site_symmetry_multiplicity
 _atom_site_fract_x
 _atom_site_fract_y
 _atom_site_fract_z
 _atom_site_occupancy
  Al  Al0  1  0.25000413  0.30049592  0.39901406  1
  Al  Al1  1  0.25000413  0.39891859  0.30059220  1
  Al  Al2  1  0.25000413  0.30049204  0.30059373  1
  Al  Al3  1  0.75000413  0.69943784  0.60111842  1
  Al  Al4  1  0.75000414  0.60101517  0.69954028  1
  Al  Al5  1  0.75000413  0.69944172  0.69953875  1
  H  H6  1  0.21588370  0.44891440  0.41412540  1
  H  H7  1  0.15181422  0.49465429  0.45096406  1
  H  H8  1  0.99793490  0.41281849  0.43514671  1
  H  H9  1  0.06212294  0.36671189  0.39873023  1
  H  H10  1  0.10650161  0.52517869  0.48033233  1
  H  H11  1  0.04384215  0.56692871  0.52223912  1
  H  H12  1  0.88905487  0.48738105  0.50444658  1
  H  H13  1  0.95174615  0.44566188  0.46251041  1
  H  H14  1  0.99892439  0.59678292  0.55246816  1
  H  H15  1  0.93779047  0.63462407  0.59897664  1
  H  H16  1  0.78333472  0.55229655  0.58508517  1
  H  H17  1  0.84440708  0.51492051  0.53805488  1
  H  H18  1  0.57232632  0.57286493  0.65443956  1
  H  H19  1  0.50741153  0.53594944  0.60930822  1
  H  H20  1  0.64021908  0.57781393  0.48480987  1
  H  H21  1  0.70536097  0.61431710  0.53022980  1
  H  H22  1  0.46212292  0.50658329  0.57876662  1
  H  H23  1  0.39942619  0.46467302  0.53704354  1
  H  H24  1  0.53051722  0.50843927  0.41083900  1
  H  H25  1  0.59318538  0.55037343  0.45257471  1
  H  H26  1  0.35448112  0.43444143  0.50720905  1
  H  H27  1  0.29411466  0.38800252  0.46881559  1
  H  H28  1  0.42666877  0.42797046  0.34457649  1
  H  H29  1  0.48672675  0.47490875  0.38268255  1
  H  H30  1  0.42511501  0.22563045  0.43161087  1
  H  H31  1  0.48462485  0.14018456  0.47791297  1
  H  H32  1  0.35465981  0.05933577  0.43111335  1
  H  H33  1  0.29539747  0.14495638  0.38439936  1
  H  H34  1  0.52919393  0.07982432  0.50852875  1
  H  H35  1  0.59199325  0.99625547  0.55026095  1
  H  H36  1  0.46120939  0.91400783  0.50596259  1
  H  H37  1  0.39840933  0.99759477  0.46425740  1
  H  H38  1  0.63717462  0.93633799  0.58008223  1
  H  H39  1  0.70281228  0.85482055  0.61736696  1
  H  H40  1  0.57455641  0.77324991  0.56993581  1
  H  H41  1  0.50864825  0.85461523  0.53315717  1
  H  H42  1  0.21780214  0.13575348  0.42688227  1
  H  H43  1  0.15517069  0.05227070  0.47328765  1
  H  H44  1  0.99806172  0.15195544  0.43598627  1
  H  H45  1  0.06068514  0.23546234  0.38916107  1
  H  H46  1  0.11004817  0.99225851  0.50392173  1
  H  H47  1  0.04736159  0.90861877  0.54565020  1
  H  H48  1  0.89002289  0.00756406  0.51088478  1
  H  H49  1  0.95274958  0.09119713  0.46918201  1
  H  H50  1  0.00238130  0.84857484  0.57546483  1
  H  H51  1  0.93984488  0.76510712  0.61264695  1
  H  H52  1  0.78177126  0.86360179  0.57468940  1
  H  H53  1  0.84440155  0.94702848  0.53801922  1
  H  H54  1  0.80659123  0.63061987  0.84894006  1
  H  H55  1  0.86594455  0.58439973  0.93448347  1
  H  H56  1  0.97290441  0.50686903  0.86633862  1
  H  H57  1  0.91384068  0.55347898  0.78059401  1
  H  H58  1  0.91060542  0.55373569  0.99478535  1
  H  H59  1  0.97336297  0.51202527  0.07837956  1
  H  H60  1  0.07908994  0.43221057  0.01189394  1
  H  H61  1  0.01628461  0.47391866  0.92831122  1
  H  H62  1  0.01849756  0.48222845  0.13832582  1
  H  H63  1  0.08423958  0.44488886  0.21977674  1
  H  H64  1  0.19302948  0.36792628  0.15227771  1
  H  H65  1  0.12687087  0.40483643  0.07107078  1
  H  H66  1  0.71221942  0.54109685  0.86076975  1
  H  H67  1  0.65109150  0.50332234  0.94519715  1
  H  H68  1  0.50577401  0.60834202  0.85292984  1
  H  H69  1  0.56676344  0.64578721  0.76839628  1
  H  H70  1  0.60617557  0.47387218  0.00533862  1
  H  H71  1  0.54345887  0.43196730  0.08895853  1
  H  H72  1  0.39859847  0.53839518  0.99786256  1
  H  H73  1  0.46136097  0.58030706  0.91425291  1
  H  H74  1  0.49841059  0.40175975  0.14895906  1
  H  H75  1  0.43440679  0.35614761  0.23150313  1
  H  H76  1  0.28772411  0.45952318  0.14017397  1
  H  H77  1  0.35197587  0.50550836  0.05776785  1
  C  C78  1  0.32011776  0.23980881  0.38014651  1
  C  C79  1  0.32011776  0.38004468  0.38014433  1
  C  C80  1  0.32011776  0.38004651  0.23990917  1
  C  C81  1  0.17988224  0.23980881  0.38014651  1
  C  C82  1  0.17988224  0.38004469  0.38014433  1
  C  C83  1  0.17988224  0.38004651  0.23990917  1
  C  C84  1  0.82011776  0.76012495  0.61998597  1
  C  C85  1  0.82011777  0.61988908  0.61998816  1
  C  C86  1  0.82011776  0.61988725  0.76022332  1
  C  C87  1  0.67988224  0.76012496  0.61998597  1
  C  C88  1  0.67988225  0.61988908  0.61998816  1
  C  C89  1  0.67988224  0.61988725  0.76022332  1
  C  C90  1  0.14386598  0.40405566  0.40415525  1
  C  C91  1  0.16955282  0.44114958  0.41870576  1
  C  C92  1  0.13275844  0.46746007  0.43982441  1
  C  C93  1  0.07023974  0.45673082  0.44627850  1
  C  C94  1  0.04432828  0.42040012  0.43078842  1
  C  C95  1  0.08119222  0.39391243  0.40987195  1
  C  C96  1  0.03385763  0.48192509  0.46882465  1
  C  C97  1  0.06025093  0.51710598  0.48554477  1
  C  C98  1  0.02427709  0.54113439  0.50952903  1
  C  C99  1  0.96190836  0.52988298  0.51683633  1
  C  C100  1  0.93532308  0.49539292  0.49932418  1
  C  C101  1  0.97132010  0.47140724  0.47527498  1
  C  C102  1  0.92632126  0.55263993  0.54227785  1
  C  C103  1  0.95308222  0.58731867  0.55943605  1
  C  C104  1  0.91796721  0.60905121  0.58617725  1
  C  C105  1  0.85613402  0.59587810  0.59597723  1
  C  C106  1  0.82918072  0.56173069  0.57818634  1
  C  C107  1  0.86426061  0.54023666  0.55116646  1
  C  C108  1  0.64386598  0.59587809  0.59597723  1
  C  C109  1  0.58681703  0.57381056  0.61842992  1
  C  C110  1  0.54950296  0.55264467  0.59249356  1
  C  C111  1  0.56923286  0.55366332  0.54402693  1
  C  C112  1  0.62583579  0.57665032  0.52097036  1
  C  C113  1  0.66325862  0.59761758  0.54705571  1
  C  C114  1  0.53253181  0.53108815  0.51906228  1
  C  C115  1  0.47667024  0.50689468  0.54308186  1
  C  C116  1  0.44063903  0.48290515  0.51909479  1
  C  C117  1  0.46057078  0.48307530  0.47111297  1
  C  C118  1  0.51599804  0.50803880  0.44657698  1
  C  C119  1  0.55200485  0.53208894  0.47055555  1
  C  C120  1  0.42533396  0.45766553  0.44810395  1
  C  C121  1  0.36982085  0.43303222  0.47263949  1
  C  C122  1  0.33513734  0.40633014  0.45059642  1
  C  C123  1  0.35613403  0.40405567  0.40415526  1
  C  C124  1  0.41133161  0.42931048  0.37917705  1
  C  C125  1  0.44586296  0.45628062  0.40106586  1
  C  C126  1  0.35613313  0.19178853  0.40415640  1
  C  C127  1  0.41019790  0.19029775  0.43140604  1
  C  C128  1  0.44436296  0.14121516  0.45804073  1
  C  C129  1  0.42435961  0.09359448  0.45749737  1
  C  C130  1  0.36971473  0.09475555  0.43111028  1
  C  C131  1  0.33567088  0.14393313  0.40427484  1
  C  C132  1  0.45946178  0.04504916  0.48284930  1
  C  C133  1  0.51480604  0.04455067  0.50794080  1
  C  C134  1  0.55081775  0.99656180  0.53196423  1
  C  C135  1  0.53145823  0.94910927  0.53080073  1
  C  C136  1  0.47566127  0.94930356  0.50647963  1
  C  C137  1  0.43961352  0.99730653  0.48250054  1
  C  C138  1  0.56831288  0.90170789  0.55340093  1
  C  C139  1  0.62389406  0.90165366  0.57791566  1
  C  C140  1  0.66162527  0.85482513  0.59932498  1
  C  C141  1  0.64386687  0.80814523  0.59597608  1
  C  C142  1  0.58789603  0.80793483  0.57206451  1
  C  C143  1  0.55001192  0.85468532  0.55091690  1
  C  C144  1  0.14386687  0.19178852  0.40415641  1
  C  C145  1  0.17105858  0.13919761  0.42871756  1
  C  C146  1  0.13510225  0.09124151  0.45541151  1
  C  C147  1  0.07194521  0.09591828  0.45761964  1
  C  C148  1  0.04480247  0.14851350  0.43393860  1
  C  C149  1  0.08076712  0.19648312  0.40703961  1
  C  C150  1  0.03598902  0.04791004  0.48299982  1
  C  C151  1  0.06322991  0.99547585  0.50535888  1
  C  C152  1  0.02726155  0.94745972  0.52938086  1
  C  C153  1  0.96403014  0.95194652  0.53095001  1
  C  C154  1  0.93683421  0.00433292  0.50937484  1
  C  C155  1  0.97284214  0.05236094  0.48539706  1
  C  C156  1  0.92801152  0.90401940  0.55352253  1
  C  C157  1  0.95546525  0.85174662  0.57528994  1
  C  C158  1  0.91953945  0.80378271  0.59663953  1
  C  C159  1  0.85613314  0.80814524  0.59597607  1
  C  C160  1  0.82867483  0.86040131  0.57482487  1
  C  C161  1  0.86464730  0.90835397  0.55374051  1
  C  C162  1  0.85613459  0.59587626  0.80824574  1
  C  C163  1  0.84204194  0.60439331  0.85259803  1
  C  C164  1  0.87609330  0.57781819  0.90175160  1
  C  C165  1  0.92417149  0.54263456  0.90655797  1
  C  C166  1  0.93760403  0.53329693  0.86258568  1
  C  C167  1  0.90368319  0.56006793  0.81333127  1
  C  C168  1  0.95917019  0.51733683  0.95516784  1
  C  C169  1  0.94650690  0.52793341  0.99843361  1
  C  C170  1  0.98247277  0.50393397  0.04645079  1
  C  C171  1  0.03115267  0.46939259  0.05111549  1
  C  C172  1  0.04325195  0.45808402  0.00822392  1
  C  C173  1  0.00721677  0.48205660  0.96021356  1
  C  C174  1  0.06813413  0.44672579  0.09843660  1
  C  C175  1  0.05563300  0.45793836  0.14130513  1
  C  C176  1  0.09341444  0.43650264  0.18810156  1
  C  C177  1  0.14386542  0.40405750  0.19188675  1
  C  C178  1  0.15594586  0.39225804  0.14930236  1
  C  C179  1  0.11794536  0.41346677  0.10262558  1
  C  C180  1  0.64386542  0.59587626  0.80824573  1
  C  C181  1  0.66827091  0.55531274  0.85908361  1
  C  C182  1  0.63318937  0.53364041  0.90758932  1
  C  C183  1  0.57372570  0.55264217  0.90523555  1
  C  C184  1  0.54965180  0.59394859  0.85457109  1
  C  C185  1  0.58467787  0.61545959  0.80601174  1
  C  C186  1  0.53821146  0.52979801  0.95352120  1
  C  C187  1  0.56198443  0.48752178  0.00377366  1
  C  C188  1  0.52601953  0.46351768  0.05179145  1
  C  C189  1  0.46624283  0.48178786  0.04947756  1
  C  C190  1  0.44275688  0.52467032  0.99942512  1
  C  C191  1  0.47877648  0.54871707  0.95140495  1
  C  C192  1  0.42977908  0.45665717  0.09712425  1
  C  C193  1  0.45359726  0.41400996  0.14710989  1
  C  C194  1  0.41682252  0.38778322  0.19453941  1
  C  C195  1  0.35613458  0.40405750  0.19188675  1
  C  C196  1  0.33250733  0.44721121  0.14204077  1
  C  C197  1  0.36941051  0.47364230  0.09467391  1
  O  O198  1  0.30179204  0.25604556  0.40846413  1
  O  O199  1  0.30179204  0.40836221  0.33559032  1
  O  O200  1  0.30179204  0.33548845  0.25615311  1
  O  O201  1  0.30179205  0.25604415  0.33559269  1
  O  O202  1  0.30179204  0.40836157  0.25615197  1
  O  O203  1  0.30179204  0.33549049  0.40846290  1
  O  O204  1  0.19820796  0.25604556  0.40846414  1
  O  O205  1  0.19820795  0.40836221  0.33559032  1
  O  O206  1  0.19820796  0.33548845  0.25615311  1
  O  O207  1  0.19820796  0.25604415  0.33559269  1
  O  O208  1  0.19820796  0.40836157  0.25615198  1
  O  O209  1  0.19820795  0.33549050  0.40846290  1
  O  O210  1  0.25000413  0.33333333  0.33336759  1
  O  O211  1  0.80179204  0.74388820  0.59166835  1
  O  O212  1  0.80179205  0.59157155  0.66454216  1
  O  O213  1  0.80179204  0.66444531  0.74397937  1
  O  O214  1  0.80179204  0.74388961  0.66453979  1
  O  O215  1  0.80179205  0.59157219  0.74398051  1
  O  O216  1  0.80179205  0.66444326  0.59166958  1
  O  O217  1  0.69820796  0.74388821  0.59166835  1
  O  O218  1  0.69820796  0.59157155  0.66454216  1
  O  O219  1  0.69820796  0.66444531  0.74397937  1
  O  O220  1  0.69820796  0.74388961  0.66453979  1
  O  O221  1  0.69820796  0.59157219  0.74398051  1
  O  O222  1  0.69820796  0.66444327  0.59166958  1
  O  O223  1  0.75000413  0.66663032  0.66670302  1
