# generated using pymatgen
data_Zn7H28C44(N9O8)2
_symmetry_space_group_name_H-M   'P 1'
_cell_length_a   9.75800000
_cell_length_b   11.89000000
_cell_length_c   15.22000000
_cell_angle_alpha   95.54400000
_cell_angle_beta   99.06800000
_cell_angle_gamma   112.87400000
_symmetry_Int_Tables_number   1
_chemical_formula_structural   Zn7H28C44(N9O8)2
_chemical_formula_sum   'Zn7 H28 C44 N18 O16'
_cell_volume   1582.29441292
_cell_formula_units_Z   1
loop_
 _symmetry_equiv_pos_site_id
 _symmetry_equiv_pos_as_xyz
  1  'x, y, z'
loop_
 _atom_site_type_symbol
 _atom_site_label
 _atom_site_symmetry_multiplicity
 _atom_site_fract_x
 _atom_site_fract_y
 _atom_site_fract_z
 _atom_site_occupancy
  Zn  Zn0  1  0.00986000  0.92810000  0.20549000  1
  Zn  Zn1  1  0.55713000  0.89077000  0.43142000  1
  Zn  Zn2  1  0.10884000  0.81187000  0.83079000  1
  Zn  Zn3  1  0.99014000  0.07190000  0.79451000  1
  Zn  Zn4  1  0.44287000  0.10923000  0.56858000  1
  Zn  Zn5  1  0.89116000  0.18813000  0.16921000  1
  Zn  Zn6  1  0.50000000  0.00000000  0.00000000  1
  H  H7  1  0.31630000  0.03380000  0.14350000  1
  H  H8  1  0.92700000  0.82330000  0.98710000  1
  H  H9  1  0.82260000  0.86340000  0.35580000  1
  H  H10  1  0.65050000  0.09620000  0.29700000  1
  H  H11  1  0.27680000  0.83520000  0.27200000  1
  H  H12  1  0.18010000  0.07830000  0.40460000  1
  H  H13  1  0.80230000  0.51040000  0.16550000  1
  H  H14  1  0.45610000  0.61120000  0.10030000  1
  H  H15  1  0.28400000  0.40530000  0.07530000  1
  H  H16  1  0.37510000  0.25040000  0.08540000  1
  H  H17  1  0.30730000  0.49480000  0.32400000  1
  H  H18  1  0.72330000  0.53830000  0.44450000  1
  H  H19  1  0.66540000  0.33440000  0.39150000  1
  H  H20  1  0.43050000  0.21110000  0.30130000  1
  H  H21  1  0.68370000  0.96620000  0.85650000  1
  H  H22  1  0.07300000  0.17670000  0.01290000  1
  H  H23  1  0.17740000  0.13660000  0.64420000  1
  H  H24  1  0.34950000  0.90380000  0.70300000  1
  H  H25  1  0.72320000  0.16480000  0.72800000  1
  H  H26  1  0.81990000  0.92170000  0.59540000  1
  H  H27  1  0.19770000  0.48960000  0.83450000  1
  H  H28  1  0.54390000  0.38880000  0.89970000  1
  H  H29  1  0.71600000  0.59470000  0.92470000  1
  H  H30  1  0.62490000  0.74960000  0.91460000  1
  H  H31  1  0.69270000  0.50520000  0.67600000  1
  H  H32  1  0.27670000  0.46170000  0.55550000  1
  H  H33  1  0.33460000  0.66560000  0.60850000  1
  H  H34  1  0.56950000  0.78890000  0.69870000  1
  C  C35  1  0.24240000  0.98450000  0.09300000  1
  C  C36  1  0.03070000  0.87040000  0.00860000  1
  C  C37  1  0.80320000  0.92530000  0.33050000  1
  C  C38  1  0.71040000  0.05150000  0.29860000  1
  C  C39  1  0.27990000  0.89550000  0.31690000  1
  C  C40  1  0.22730000  0.02700000  0.38910000  1
  C  C41  1  0.65690000  0.26750000  0.13560000  1
  C  C42  1  0.75990000  0.71370000  0.14790000  1
  C  C43  1  0.59870000  0.36650000  0.12680000  1
  C  C44  1  0.69900000  0.48940000  0.14530000  1
  C  C45  1  0.64870000  0.58260000  0.13430000  1
  C  C46  1  0.49130000  0.54960000  0.10740000  1
  C  C47  1  0.38800000  0.42630000  0.09110000  1
  C  C48  1  0.44270000  0.33350000  0.09880000  1
  C  C49  1  0.18920000  0.25880000  0.24620000  1
  C  C50  1  0.56670000  0.67350000  0.41710000  1
  C  C51  1  0.34360000  0.34120000  0.30340000  1
  C  C52  1  0.38010000  0.46290000  0.33600000  1
  C  C53  1  0.52390000  0.53940000  0.38680000  1
  C  C54  1  0.62810000  0.48870000  0.40820000  1
  C  C55  1  0.59380000  0.36700000  0.37690000  1
  C  C56  1  0.45330000  0.29330000  0.32390000  1
  C  C57  1  0.75760000  0.01550000  0.90700000  1
  C  C58  1  0.96930000  0.12960000  0.99140000  1
  C  C59  1  0.19680000  0.07470000  0.66950000  1
  C  C60  1  0.28960000  0.94850000  0.70140000  1
  C  C61  1  0.72010000  0.10450000  0.68310000  1
  C  C62  1  0.77270000  0.97300000  0.61090000  1
  C  C63  1  0.34310000  0.73250000  0.86440000  1
  C  C64  1  0.24010000  0.28630000  0.85210000  1
  C  C65  1  0.40130000  0.63350000  0.87320000  1
  C  C66  1  0.30100000  0.51060000  0.85470000  1
  C  C67  1  0.35130000  0.41740000  0.86570000  1
  C  C68  1  0.50870000  0.45040000  0.89260000  1
  C  C69  1  0.61200000  0.57370000  0.90890000  1
  C  C70  1  0.55730000  0.66650000  0.90120000  1
  C  C71  1  0.81080000  0.74120000  0.75380000  1
  C  C72  1  0.43330000  0.32650000  0.58290000  1
  C  C73  1  0.65640000  0.65880000  0.69660000  1
  C  C74  1  0.61990000  0.53710000  0.66400000  1
  C  C75  1  0.47610000  0.46060000  0.61320000  1
  C  C76  1  0.37190000  0.51130000  0.59180000  1
  C  C77  1  0.40620000  0.63300000  0.62310000  1
  C  C78  1  0.54670000  0.70670000  0.67610000  1
  N  N79  1  0.27460000  0.96100000  0.01420000  1
  N  N80  1  0.13410000  0.88540000  0.95850000  1
  N  N81  1  0.09290000  0.93080000  0.09380000  1
  N  N82  1  0.87770000  0.98520000  0.27150000  1
  N  N83  1  0.81600000  0.06780000  0.25140000  1
  N  N84  1  0.69820000  0.96320000  0.34960000  1
  N  N85  1  0.38190000  0.93810000  0.39390000  1
  N  N86  1  0.34570000  0.02380000  0.44190000  1
  N  N87  1  0.18220000  0.94840000  0.31060000  1
  N  N88  1  0.72540000  0.03900000  0.98580000  1
  N  N89  1  0.86590000  0.11460000  0.04150000  1
  N  N90  1  0.90710000  0.06920000  0.90620000  1
  N  N91  1  0.12230000  0.01480000  0.72850000  1
  N  N92  1  0.18400000  0.93220000  0.74860000  1
  N  N93  1  0.30180000  0.03680000  0.65040000  1
  N  N94  1  0.61810000  0.06190000  0.60610000  1
  N  N95  1  0.65430000  0.97620000  0.55810000  1
  N  N96  1  0.81780000  0.05160000  0.68940000  1
  O  O97  1  0.57240000  0.15630000  0.11120000  1
  O  O98  1  0.80020000  0.30750000  0.16760000  1
  O  O99  1  0.89180000  0.74320000  0.19690000  1
  O  O100  1  0.72790000  0.79130000  0.10850000  1
  O  O101  1  0.15730000  0.15030000  0.21740000  1
  O  O102  1  0.09590000  0.30950000  0.22740000  1
  O  O103  1  0.46070000  0.71170000  0.39470000  1
  O  O104  1  0.69380000  0.74420000  0.46030000  1
  O  O105  1  0.42760000  0.84370000  0.88880000  1
  O  O106  1  0.19980000  0.69250000  0.83240000  1
  O  O107  1  0.10820000  0.25680000  0.80310000  1
  O  O108  1  0.27210000  0.20870000  0.89150000  1
  O  O109  1  0.84270000  0.84970000  0.78260000  1
  O  O110  1  0.90410000  0.69050000  0.77260000  1
  O  O111  1  0.53930000  0.28830000  0.60530000  1
  O  O112  1  0.30620000  0.25580000  0.53970000  1
