# generated using pymatgen
data_CuH4(C2O)4
_symmetry_space_group_name_H-M   'P 1'
_cell_length_a   22.36937477
_cell_length_b   22.36933142
_cell_length_c   44.73914436
_cell_angle_alpha   89.99999868
_cell_angle_beta   89.99999887
_cell_angle_gamma   90.00000000
_symmetry_Int_Tables_number   1
_chemical_formula_structural   CuH4(C2O)4
_chemical_formula_sum   'Cu32 H128 C256 O128'
_cell_volume   22386.92908129
_cell_formula_units_Z   32
loop_
 _symmetry_equiv_pos_site_id
 _symmetry_equiv_pos_as_xyz
  1  'x, y, z'
loop_
 _atom_site_type_symbol
 _atom_site_label
 _atom_site_symmetry_multiplicity
 _atom_site_fract_x
 _atom_site_fract_y
 _atom_site_fract_z
 _atom_site_occupancy
  Cu  Cu0  1  0.05877752  0.00000174  0.12499760  1
  Cu  Cu1  1  0.94122248  0.99999826  0.12500240  1
  Cu  Cu2  1  0.05877752  0.49999829  0.12500274  1
  Cu  Cu3  1  0.94122248  0.50000176  0.12499756  1
  Cu  Cu4  1  0.55877780  0.99999862  0.12499648  1
  Cu  Cu5  1  0.44122276  0.99999515  0.12500155  1
  Cu  Cu6  1  0.55877777  0.49999518  0.12500215  1
  Cu  Cu7  1  0.44122273  0.49999865  0.12499725  1
  Cu  Cu8  1  0.05878289  0.99999978  0.87499744  1
  Cu  Cu9  1  0.94122784  0.99999631  0.87500223  1
  Cu  Cu10  1  0.05878290  0.49999981  0.87499699  1
  Cu  Cu11  1  0.94122786  0.49999634  0.87500178  1
  Cu  Cu12  1  0.44122341  0.99999522  0.87499698  1
  Cu  Cu13  1  0.55877845  0.99999869  0.87500213  1
  Cu  Cu14  1  0.44122339  0.49999868  0.87500152  1
  Cu  Cu15  1  0.55877843  0.49999521  0.87499671  1
  Cu  Cu16  1  0.00000037  0.94122445  0.37500231  1
  Cu  Cu17  1  0.00000384  0.05877972  0.37499758  1
  Cu  Cu18  1  0.00000032  0.44122433  0.37500152  1
  Cu  Cu19  1  0.00000379  0.55877960  0.37499676  1
  Cu  Cu20  1  0.50000063  0.94122145  0.37500237  1
  Cu  Cu21  1  0.50000410  0.05877672  0.37499723  1
  Cu  Cu22  1  0.50000053  0.44122088  0.37500156  1
  Cu  Cu23  1  0.50000400  0.55877615  0.37499645  1
  Cu  Cu24  1  0.00000505  0.94121810  0.62499748  1
  Cu  Cu25  1  0.00000158  0.05877337  0.62500270  1
  Cu  Cu26  1  0.00000161  0.44121865  0.62500060  1
  Cu  Cu27  1  0.00000509  0.55877392  0.62499585  1
  Cu  Cu28  1  0.50000142  0.05877700  0.62499807  1
  Cu  Cu29  1  0.50000489  0.94122173  0.62500293  1
  Cu  Cu30  1  0.50000138  0.55877668  0.62499565  1
  Cu  Cu31  1  0.50000485  0.44122141  0.62500054  1
  H  H32  1  0.80990691  0.60252523  0.61704009  1
  H  H33  1  0.80990435  0.39747076  0.63295605  1
  H  H34  1  0.69009956  0.39747010  0.63295612  1
  H  H35  1  0.69010211  0.60252456  0.61704016  1
  H  H36  1  0.19009957  0.60250945  0.61698953  1
  H  H37  1  0.19010210  0.39748654  0.63300678  1
  H  H38  1  0.30990689  0.39748587  0.63300689  1
  H  H39  1  0.30990437  0.60250879  0.61698965  1
  H  H40  1  0.80990613  0.99999676  0.67687771  1
  H  H41  1  0.80990513  0.99999676  0.57312355  1
  H  H42  1  0.69010034  0.99999834  0.57312277  1
  H  H43  1  0.69010133  0.99999834  0.67687692  1
  H  H44  1  0.19010184  0.92535439  0.58896638  1
  H  H45  1  0.19009983  0.07463777  0.66103345  1
  H  H46  1  0.30990463  0.07464071  0.66103431  1
  H  H47  1  0.30990663  0.92535733  0.58896724  1
  H  H48  1  0.59111049  0.54964486  0.47004733  1
  H  H49  1  0.40889692  0.45035381  0.47004790  1
  H  H50  1  0.40889560  0.45035311  0.52994977  1
  H  H51  1  0.59110917  0.54964416  0.52994920  1
  H  H52  1  0.50000288  0.10375564  0.47004906  1
  H  H53  1  0.50000305  0.89624510  0.47004938  1
  H  H54  1  0.50000336  0.89624332  0.52995125  1
  H  H55  1  0.50000319  0.10375386  0.52995092  1
  H  H56  1  0.00959965  0.39668876  0.47004672  1
  H  H57  1  0.99040574  0.60330972  0.47004877  1
  H  H58  1  0.99040576  0.60330950  0.52995064  1
  H  H59  1  0.00959967  0.39668855  0.52994859  1
  H  H60  1  0.80990348  0.60370658  0.37661947  1
  H  H61  1  0.80990563  0.39629728  0.37337874  1
  H  H62  1  0.69010084  0.39629390  0.37337868  1
  H  H63  1  0.69009869  0.60370319  0.37661941  1
  H  H64  1  0.19009984  0.51287036  0.42647605  1
  H  H65  1  0.19009968  0.48713185  0.32352310  1
  H  H66  1  0.30990448  0.48713011  0.32352207  1
  H  H67  1  0.30990464  0.51286862  0.42647503  1
  H  H68  1  0.10164131  0.97914603  0.47004869  1
  H  H69  1  0.89836580  0.02085374  0.47004947  1
  H  H70  1  0.89836411  0.02085176  0.52995134  1
  H  H71  1  0.10163962  0.97914405  0.52995056  1
  H  H72  1  0.80990491  0.98992555  0.42663226  1
  H  H73  1  0.80990436  0.01007673  0.32336847  1
  H  H74  1  0.69009956  0.01007561  0.32336750  1
  H  H75  1  0.69010011  0.98992443  0.42663129  1
  H  H76  1  0.19009945  0.00000124  0.32312236  1
  H  H77  1  0.19010022  0.00000123  0.42687652  1
  H  H78  1  0.30990502  0.99999993  0.42687737  1
  H  H79  1  0.30990425  0.99999993  0.32312322  1
  H  H80  1  0.42842642  0.57511309  0.77994966  1
  H  H81  1  0.57157564  0.42488377  0.77994942  1
  H  H82  1  0.57157762  0.42488309  0.72004755  1
  H  H83  1  0.42842840  0.57511240  0.72004779  1
  H  H84  1  0.52046439  0.10171623  0.77995147  1
  H  H85  1  0.47953939  0.89828131  0.77995046  1
  H  H86  1  0.47953970  0.89828024  0.72004859  1
  H  H87  1  0.52046470  0.10171515  0.72004960  1
  H  H88  1  0.60375694  0.80989968  0.87499946  1
  H  H89  1  0.39624680  0.80989924  0.87499944  1
  H  H90  1  0.39624490  0.69009422  0.87499920  1
  H  H91  1  0.60375505  0.69009466  0.87499922  1
  H  H92  1  0.60375678  0.19009422  0.87509086  1
  H  H93  1  0.39624696  0.19009466  0.87490797  1
  H  H94  1  0.39624507  0.30989968  0.87490782  1
  H  H95  1  0.60375488  0.30989925  0.87509072  1
  H  H96  1  0.96903125  0.59902219  0.77994964  1
  H  H97  1  0.03097859  0.40097386  0.77994983  1
  H  H98  1  0.03097829  0.40097129  0.72004796  1
  H  H99  1  0.96903095  0.59901961  0.72004777  1
  H  H100  1  0.93868040  0.91630337  0.77995158  1
  H  H101  1  0.06132883  0.08368894  0.77995021  1
  H  H102  1  0.06132907  0.08368947  0.72004834  1
  H  H103  1  0.93868064  0.91630390  0.72004971  1
  H  H104  1  0.89627043  0.80990080  0.87395423  1
  H  H105  1  0.10373843  0.80990035  0.87604517  1
  H  H106  1  0.10374032  0.69009532  0.87604500  1
  H  H107  1  0.89627232  0.69009577  0.87395406  1
  H  H108  1  0.90067780  0.19009542  0.88999410  1
  H  H109  1  0.09933114  0.19009567  0.86000557  1
  H  H110  1  0.09933295  0.30990069  0.86000510  1
  H  H111  1  0.90067961  0.30990045  0.88999362  1
  H  H112  1  0.50087950  0.60375003  0.22004810  1
  H  H113  1  0.49912214  0.39624692  0.22004873  1
  H  H114  1  0.49912276  0.39624549  0.27995059  1
  H  H115  1  0.50088012  0.60374859  0.27994997  1
  H  H116  1  0.50023770  0.39624065  0.02995046  1
  H  H117  1  0.49976278  0.60375065  0.02995023  1
  H  H118  1  0.49976299  0.60375253  0.97004836  1
  H  H119  1  0.50023791  0.39624253  0.97004859  1
  H  H120  1  0.59831046  0.03317205  0.22004799  1
  H  H121  1  0.40169307  0.96682391  0.22004895  1
  H  H122  1  0.40169194  0.96682399  0.27995082  1
  H  H123  1  0.59830934  0.03317213  0.27994986  1
  H  H124  1  0.49915166  0.89624380  0.02995032  1
  H  H125  1  0.50084884  0.10374740  0.02995011  1
  H  H126  1  0.50084907  0.10374931  0.97004825  1
  H  H127  1  0.49915189  0.89624571  0.97004845  1
  H  H128  1  0.50000060  0.80990026  0.17687673  1
  H  H129  1  0.49999994  0.80989857  0.07312258  1
  H  H130  1  0.49999993  0.69009354  0.07312199  1
  H  H131  1  0.50000059  0.69009523  0.17687615  1
  H  H132  1  0.40698308  0.19009433  0.10201513  1
  H  H133  1  0.59301577  0.19009444  0.14798291  1
  H  H134  1  0.59301745  0.30989947  0.14798357  1
  H  H135  1  0.40698476  0.30989936  0.10201578  1
  H  H136  1  0.89765853  0.48293382  0.27995112  1
  H  H137  1  0.10234174  0.51706956  0.27995003  1
  H  H138  1  0.10234273  0.51706904  0.22004816  1
  H  H139  1  0.89765952  0.48293330  0.22004925  1
  H  H140  1  0.99902355  0.60375040  0.97004851  1
  H  H141  1  0.00098383  0.39624912  0.97004915  1
  H  H142  1  0.00098184  0.39624769  0.02995102  1
  H  H143  1  0.99902155  0.60374897  0.02995038  1
  H  H144  1  0.93444965  0.91957432  0.22004948  1
  H  H145  1  0.06554958  0.08042633  0.22004860  1
  H  H146  1  0.06555166  0.08042870  0.27995047  1
  H  H147  1  0.93445173  0.91957670  0.27995135  1
  H  H148  1  0.00063777  0.89624498  0.02995116  1
  H  H149  1  0.99936558  0.10375163  0.02995054  1
  H  H150  1  0.99936758  0.10375307  0.97004867  1
  H  H151  1  0.00063978  0.89624643  0.97004929  1
  H  H152  1  0.00000006  0.80990287  0.17687759  1
  H  H153  1  0.99999994  0.80990218  0.07312344  1
  H  H154  1  0.99999994  0.69009715  0.07312256  1
  H  H155  1  0.00000006  0.69009785  0.17687672  1
  H  H156  1  0.08584850  0.19009733  0.09586550  1
  H  H157  1  0.91415306  0.19009767  0.15413405  1
  H  H158  1  0.91415150  0.30990270  0.15413464  1
  H  H159  1  0.08584694  0.30990235  0.09586609  1
  C  C160  1  0.99999963  0.00000046  0.18115643  1
  C  C161  1  0.00000037  0.99999954  0.06884357  1
  C  C162  1  0.00000000  0.11231016  0.12500001  1
  C  C163  1  0.00000000  0.88768984  0.12499999  1
  C  C164  1  0.00000038  0.49999957  0.06884372  1
  C  C165  1  0.99999963  0.50000048  0.18115658  1
  C  C166  1  0.00000000  0.38768987  0.12500014  1
  C  C167  1  0.00000000  0.61231018  0.12500016  1
  C  C168  1  0.50000044  0.99999724  0.18115544  1
  C  C169  1  0.50000012  0.99999653  0.06884258  1
  C  C170  1  0.50000028  0.11230704  0.12499907  1
  C  C171  1  0.50000028  0.88768673  0.12499895  1
  C  C172  1  0.50000010  0.49999659  0.06884327  1
  C  C173  1  0.50000040  0.49999724  0.18115613  1
  C  C174  1  0.50000025  0.38768676  0.12499962  1
  C  C175  1  0.50000025  0.61230707  0.12499977  1
  C  C176  1  0.00000499  0.99999852  0.93115626  1
  C  C177  1  0.00000574  0.99999757  0.81884340  1
  C  C178  1  0.00000536  0.11230820  0.87499983  1
  C  C179  1  0.00000536  0.88768789  0.87499983  1
  C  C180  1  0.00000501  0.49999852  0.93115581  1
  C  C181  1  0.00000576  0.49999763  0.81884295  1
  C  C182  1  0.00000538  0.61230823  0.87499939  1
  C  C183  1  0.00000538  0.38768792  0.87499937  1
  C  C184  1  0.50000061  0.99999658  0.93115599  1
  C  C185  1  0.50000126  0.99999734  0.81884313  1
  C  C186  1  0.50000093  0.88768680  0.87499961  1
  C  C187  1  0.50000093  0.11230711  0.87499951  1
  C  C188  1  0.50000124  0.49999730  0.81884269  1
  C  C189  1  0.50000059  0.49999658  0.93115555  1
  C  C190  1  0.50000091  0.61230710  0.87499906  1
  C  C191  1  0.50000091  0.38768679  0.87499918  1
  C  C192  1  0.00000168  0.00000256  0.31884352  1
  C  C193  1  0.00000253  0.00000160  0.43115638  1
  C  C194  1  0.88769216  0.00000208  0.37499992  1
  C  C195  1  0.11231204  0.00000208  0.37499997  1
  C  C196  1  0.00000163  0.50000238  0.31884271  1
  C  C197  1  0.00000248  0.50000154  0.43115557  1
  C  C198  1  0.88769212  0.50000196  0.37499911  1
  C  C199  1  0.11231200  0.50000196  0.37499916  1
  C  C200  1  0.50000197  0.99999880  0.31884337  1
  C  C201  1  0.50000276  0.99999936  0.43115623  1
  C  C202  1  0.38769243  0.99999908  0.37499976  1
  C  C203  1  0.61231230  0.99999908  0.37499984  1
  C  C204  1  0.50000186  0.49999827  0.31884257  1
  C  C205  1  0.50000266  0.49999875  0.43115543  1
  C  C206  1  0.38769232  0.49999851  0.37499896  1
  C  C207  1  0.61231220  0.49999851  0.37499904  1
  C  C208  1  0.00000373  0.99999528  0.68115652  1
  C  C209  1  0.00000289  0.99999619  0.56884366  1
  C  C210  1  0.11231325  0.99999573  0.62500011  1
  C  C211  1  0.88769337  0.99999573  0.62500006  1
  C  C212  1  0.00000292  0.49999672  0.56884179  1
  C  C213  1  0.00000377  0.49999585  0.68115465  1
  C  C214  1  0.88769341  0.49999628  0.62499820  1
  C  C215  1  0.11231329  0.49999628  0.62499825  1
  C  C216  1  0.50000283  0.99999913  0.68115693  1
  C  C217  1  0.50000347  0.99999961  0.56884407  1
  C  C218  1  0.38769321  0.99999937  0.62500058  1
  C  C219  1  0.61231309  0.99999937  0.62500042  1
  C  C220  1  0.50000280  0.49999887  0.68115452  1
  C  C221  1  0.50000343  0.49999922  0.56884166  1
  C  C222  1  0.38769318  0.49999904  0.62499817  1
  C  C223  1  0.61231305  0.49999904  0.62499801  1
  C  C224  1  0.78442549  0.55891276  0.62042522  1
  C  C225  1  0.81884816  0.49999697  0.62499815  1
  C  C226  1  0.78442590  0.44108188  0.62957104  1
  C  C227  1  0.71558097  0.44108257  0.62957099  1
  C  C228  1  0.68115830  0.49999835  0.62499806  1
  C  C229  1  0.71558056  0.55891345  0.62042517  1
  C  C230  1  0.21558098  0.55890369  0.62039621  1
  C  C231  1  0.18115830  0.49999697  0.62499823  1
  C  C232  1  0.21558055  0.44109095  0.62960023  1
  C  C233  1  0.28442548  0.44109164  0.62960021  1
  C  C234  1  0.31884816  0.49999835  0.62499819  1
  C  C235  1  0.28442591  0.55890438  0.62039619  1
  C  C236  1  0.78442505  0.99999710  0.65481043  1
  C  C237  1  0.81884816  0.99999664  0.62500015  1
  C  C238  1  0.78442635  0.99999710  0.59518996  1
  C  C239  1  0.71558142  0.99999801  0.59519005  1
  C  C240  1  0.68115830  0.99999846  0.62500033  1
  C  C241  1  0.71558011  0.99999800  0.65481052  1
  C  C242  1  0.21558228  0.95710559  0.60429426  1
  C  C243  1  0.18115830  0.99999664  0.62500023  1
  C  C244  1  0.21557925  0.04288861  0.64570631  1
  C  C245  1  0.28442418  0.04288952  0.64570643  1
  C  C246  1  0.31884816  0.99999846  0.62500046  1
  C  C247  1  0.28442721  0.95710649  0.60429438  1
  C  C248  1  0.55235583  0.52852684  0.48278777  1
  C  C249  1  0.50000285  0.49999887  0.46557638  1
  C  C250  1  0.44765007  0.47147102  0.48278716  1
  C  C251  1  0.44765026  0.47147113  0.51720932  1
  C  C252  1  0.50000324  0.49999910  0.53442071  1
  C  C253  1  0.55235602  0.52852695  0.51720993  1
  C  C254  1  0.50000298  0.05962056  0.48278945  1
  C  C255  1  0.50000294  0.99999942  0.46557799  1
  C  C256  1  0.50000308  0.94037834  0.48278869  1
  C  C257  1  0.50000326  0.94037840  0.51721086  1
  C  C258  1  0.50000330  0.99999954  0.53442231  1
  C  C259  1  0.50000316  0.05962062  0.51721161  1
  C  C260  1  0.00551737  0.44063422  0.48278748  1
  C  C261  1  0.00000259  0.50000034  0.46557652  1
  C  C262  1  0.99448793  0.55936525  0.48278772  1
  C  C263  1  0.99448804  0.55936404  0.51720988  1
  C  C264  1  0.00000281  0.49999793  0.53442084  1
  C  C265  1  0.00551748  0.44063301  0.51720964  1
  C  C266  1  0.78442307  0.55959269  0.37593020  1
  C  C267  1  0.81884709  0.50000110  0.37499909  1
  C  C268  1  0.78442618  0.44040865  0.37406797  1
  C  C269  1  0.71558125  0.44040779  0.37406795  1
  C  C270  1  0.68115723  0.49999937  0.37499906  1
  C  C271  1  0.71557814  0.55959182  0.37593018  1
  C  C272  1  0.21558068  0.50739576  0.40457912  1
  C  C273  1  0.18115723  0.50000110  0.37499911  1
  C  C274  1  0.21557871  0.49260558  0.34541905  1
  C  C275  1  0.28442364  0.49260472  0.34541900  1
  C  C276  1  0.31884709  0.49999937  0.37499901  1
  C  C277  1  0.28442561  0.50739489  0.40457907  1
  C  C278  1  0.05840698  0.98801628  0.48278918  1
  C  C279  1  0.00000262  0.00000025  0.46557785  1
  C  C280  1  0.94159835  0.01198287  0.48278869  1
  C  C281  1  0.94159844  0.01198151  0.51721085  1
  C  C282  1  0.00000280  0.99999754  0.53442218  1
  C  C283  1  0.05840707  0.98801492  0.51721134  1
  C  C284  1  0.78442392  0.99421120  0.40466923  1
  C  C285  1  0.81884717  0.00000133  0.37499990  1
  C  C286  1  0.78442548  0.00579071  0.34533055  1
  C  C287  1  0.71558055  0.00578996  0.34533053  1
  C  C288  1  0.68115730  0.99999983  0.37499986  1
  C  C289  1  0.71557899  0.99421045  0.40466921  1
  C  C290  1  0.21558049  0.00000096  0.34518966  1
  C  C291  1  0.18115730  0.00000133  0.37499992  1
  C  C292  1  0.21557905  0.00000095  0.40481013  1
  C  C293  1  0.28442398  0.00000020  0.40481007  1
  C  C294  1  0.31884717  0.99999983  0.37499981  1
  C  C295  1  0.28442542  0.00000021  0.34518961  1
  C  C296  1  0.45887275  0.54316118  0.76720929  1
  C  C297  1  0.50000163  0.49999769  0.78442077  1
  C  C298  1  0.54113089  0.45683460  0.76721008  1
  C  C299  1  0.54113128  0.45683499  0.73278792  1
  C  C300  1  0.50000241  0.49999848  0.71557644  1
  C  C301  1  0.45887315  0.54316157  0.73278712  1
  C  C302  1  0.51176026  0.05844812  0.76721093  1
  C  C303  1  0.50000165  0.99999779  0.78442219  1
  C  C304  1  0.48824344  0.94154790  0.76721129  1
  C  C305  1  0.48824383  0.94154834  0.73278913  1
  C  C306  1  0.50000244  0.99999868  0.71557787  1
  C  C307  1  0.51176065  0.05844857  0.73278877  1
  C  C308  1  0.55962192  0.78441867  0.87499941  1
  C  C309  1  0.50000093  0.81884202  0.87499947  1
  C  C310  1  0.44037993  0.78442030  0.87499940  1
  C  C311  1  0.44037993  0.71557523  0.87499926  1
  C  C312  1  0.50000092  0.68115189  0.87499919  1
  C  C313  1  0.55962191  0.71557361  0.87499927  1
  C  C314  1  0.55962183  0.21557523  0.87505193  1
  C  C315  1  0.50000093  0.18115189  0.87499942  1
  C  C316  1  0.44038003  0.21557361  0.87494684  1
  C  C317  1  0.44038002  0.28441867  0.87494675  1
  C  C318  1  0.50000092  0.31884202  0.87499926  1
  C  C319  1  0.55962182  0.28442030  0.87505185  1
  C  C320  1  0.98220655  0.55689942  0.76720936  1
  C  C321  1  0.00000526  0.49999718  0.78442097  1
  C  C322  1  0.01780348  0.44309450  0.76721041  1
  C  C323  1  0.01780298  0.44309405  0.73278825  1
  C  C324  1  0.00000427  0.49999629  0.71557664  1
  C  C325  1  0.98220605  0.55689898  0.73278720  1
  C  C326  1  0.96476612  0.95190415  0.76721096  1
  C  C327  1  0.00000524  0.99999699  0.78442212  1
  C  C328  1  0.03524385  0.04808927  0.76721111  1
  C  C329  1  0.03524335  0.04808870  0.73278895  1
  C  C330  1  0.00000423  0.99999585  0.71557780  1
  C  C331  1  0.96476562  0.95190358  0.73278880  1
  C  C332  1  0.94039649  0.78441978  0.87439891  1
  C  C333  1  0.00000537  0.81884312  0.87499972  1
  C  C334  1  0.05961426  0.78442140  0.87560043  1
  C  C335  1  0.05961426  0.71557633  0.87560032  1
  C  C336  1  0.00000538  0.68115299  0.87499950  1
  C  C337  1  0.94039649  0.71557472  0.87439880  1
  C  C338  1  0.94292908  0.21557640  0.88361584  1
  C  C339  1  0.00000537  0.18115299  0.87499971  1
  C  C340  1  0.05708166  0.21557466  0.86638347  1
  C  C341  1  0.05708167  0.28441972  0.86638336  1
  C  C342  1  0.00000538  0.31884312  0.87499948  1
  C  C343  1  0.94292908  0.28442146  0.88361572  1
  C  C344  1  0.50050587  0.55961660  0.23278856  1
  C  C345  1  0.50000077  0.49999750  0.21557719  1
  C  C346  1  0.49949603  0.44037866  0.23278798  1
  C  C347  1  0.49949640  0.44037892  0.26721014  1
  C  C348  1  0.50000150  0.49999801  0.28442151  1
  C  C349  1  0.50050623  0.55961686  0.26721072  1
  C  C350  1  0.50013673  0.44037564  0.01721009  1
  C  C351  1  0.50000022  0.49999659  0.03442157  1
  C  C352  1  0.49986383  0.55961754  0.01721089  1
  C  C353  1  0.49986395  0.55961754  0.98278873  1
  C  C354  1  0.50000047  0.49999659  0.96557724  1
  C  C355  1  0.50013686  0.44037563  0.98278792  1
  C  C356  1  0.55649235  0.01906071  0.23278852  1
  C  C357  1  0.50000082  0.99999763  0.21557724  1
  C  C358  1  0.44350968  0.98093494  0.23278813  1
  C  C359  1  0.44351006  0.98093533  0.26721029  1
  C  C360  1  0.50000159  0.99999841  0.28442157  1
  C  C361  1  0.55649273  0.01906110  0.26721068  1
  C  C362  1  0.49951268  0.94037743  0.01720996  1
  C  C363  1  0.50000024  0.99999654  0.03442145  1
  C  C364  1  0.50048793  0.05961566  0.01721077  1
  C  C365  1  0.50048805  0.05961567  0.98278861  1
  C  C366  1  0.50000049  0.99999657  0.96557712  1
  C  C367  1  0.49951280  0.94037744  0.98278779  1
  C  C368  1  0.50000046  0.78441898  0.15480949  1
  C  C369  1  0.50000027  0.81884196  0.12499916  1
  C  C370  1  0.50000008  0.78441989  0.09518903  1
  C  C371  1  0.50000007  0.71557482  0.09518923  1
  C  C372  1  0.50000026  0.68115183  0.12499957  1
  C  C373  1  0.50000045  0.71557391  0.15480970  1
  C  C374  1  0.44655009  0.21557528  0.11179200  1
  C  C375  1  0.50000027  0.18115183  0.12499921  1
  C  C376  1  0.55345044  0.21557346  0.13820656  1
  C  C377  1  0.55345044  0.28441852  0.13820670  1
  C  C378  1  0.50000026  0.31884197  0.12499948  1
  C  C379  1  0.44655008  0.28442034  0.11179213  1
  C  C380  1  0.94119211  0.49019392  0.26721057  1
  C  C381  1  0.00000113  0.50000191  0.28442181  1
  C  C382  1  0.05880965  0.50980941  0.26721088  1
  C  C383  1  0.05880915  0.50980894  0.23278872  1
  C  C384  1  0.00000013  0.50000095  0.21557748  1
  C  C385  1  0.94119161  0.49019345  0.23278841  1
  C  C386  1  0.99944005  0.55961736  0.98278897  1
  C  C387  1  0.00000385  0.49999878  0.96557760  1
  C  C388  1  0.00056649  0.44038047  0.98278840  1
  C  C389  1  0.00056533  0.44038073  0.01721056  1
  C  C390  1  0.00000153  0.49999931  0.03442193  1
  C  C391  1  0.99943889  0.55961762  0.01721113  1
  C  C392  1  0.96233329  0.95378589  0.23278961  1
  C  C393  1  0.00000014  0.00000099  0.21557781  1
  C  C394  1  0.03766751  0.04621661  0.23278817  1
  C  C395  1  0.03766803  0.04621714  0.26721033  1
  C  C396  1  0.00000117  0.00000204  0.28442214  1
  C  C397  1  0.96233380  0.95378641  0.26721178  1
  C  C398  1  0.00036762  0.94037917  0.01721071  1
  C  C399  1  0.00000152  0.99999928  0.03442208  1
  C  C400  1  0.99963658  0.05961914  0.01721129  1
  C  C401  1  0.99963774  0.05961889  0.98278912  1
  C  C402  1  0.00000384  0.99999877  0.96557775  1
  C  C403  1  0.00036878  0.94037891  0.98278854  1
  C  C404  1  0.00000004  0.78442180  0.15481029  1
  C  C405  1  0.00000000  0.81884508  0.12500004  1
  C  C406  1  0.99999997  0.78442328  0.09518982  1
  C  C407  1  0.99999997  0.71557822  0.09518986  1
  C  C408  1  0.00000000  0.68115495  0.12500012  1
  C  C409  1  0.00000004  0.71557674  0.15481033  1
  C  C410  1  0.04933086  0.21557832  0.10825857  1
  C  C411  1  0.00000000  0.18115495  0.12500004  1
  C  C412  1  0.95066915  0.21557664  0.14174155  1
  C  C413  1  0.95066915  0.28442170  0.14174158  1
  C  C414  1  0.00000000  0.31884508  0.12500011  1
  C  C415  1  0.04933086  0.28442338  0.10825860  1
  O  O416  1  0.04970638  0.00000035  0.16836756  1
  O  O417  1  0.04970492  0.00000130  0.08163238  1
  O  O418  1  0.04970255  0.08673877  0.12499625  1
  O  O419  1  0.04970876  0.91325656  0.12500053  1
  O  O420  1  0.95029746  0.91325491  0.12500058  1
  O  O421  1  0.95029141  0.08673080  0.12499947  1
  O  O422  1  0.95029362  0.99999965  0.08163244  1
  O  O423  1  0.95029508  0.99999870  0.16836762  1
  O  O424  1  0.04970695  0.49999968  0.08163275  1
  O  O425  1  0.04970435  0.49999872  0.16836793  1
  O  O426  1  0.04970255  0.41326125  0.12500405  1
  O  O427  1  0.04970876  0.58674347  0.12499979  1
  O  O428  1  0.95029747  0.58674512  0.12499940  1
  O  O429  1  0.95029142  0.41326922  0.12500051  1
  O  O430  1  0.95029306  0.50000037  0.16836755  1
  O  O431  1  0.95029566  0.50000133  0.08163237  1
  O  O432  1  0.54970706  0.99999715  0.16836646  1
  O  O433  1  0.54970479  0.99999826  0.08163128  1
  O  O434  1  0.54970283  0.08673566  0.12499519  1
  O  O435  1  0.54970904  0.91325344  0.12499938  1
  O  O436  1  0.45029774  0.91325179  0.12499967  1
  O  O437  1  0.45029169  0.08672768  0.12499864  1
  O  O438  1  0.45029350  0.99999661  0.08163157  1
  O  O439  1  0.45029577  0.99999550  0.16836675  1
  O  O440  1  0.54970679  0.49999667  0.08163218  1
  O  O441  1  0.54970500  0.49999551  0.16836736  1
  O  O442  1  0.54970280  0.41325814  0.12500344  1
  O  O443  1  0.54970901  0.58674036  0.12499927  1
  O  O444  1  0.45029771  0.58674201  0.12499912  1
  O  O445  1  0.45029166  0.41326611  0.12500013  1
  O  O446  1  0.45029371  0.49999716  0.16836721  1
  O  O447  1  0.45029550  0.49999832  0.08163203  1
  O  O448  1  0.04971174  0.99999841  0.91836739  1
  O  O449  1  0.04971029  0.99999933  0.83163221  1
  O  O450  1  0.04970791  0.08673682  0.87499608  1
  O  O451  1  0.04971412  0.91325460  0.87500036  1
  O  O452  1  0.95030283  0.91325295  0.87500042  1
  O  O453  1  0.95029678  0.08672884  0.87499930  1
  O  O454  1  0.95029899  0.99999768  0.83163227  1
  O  O455  1  0.95030044  0.99999676  0.91836745  1
  O  O456  1  0.04971175  0.49999842  0.91836694  1
  O  O457  1  0.04971031  0.49999939  0.83163176  1
  O  O458  1  0.04970793  0.58673685  0.87499564  1
  O  O459  1  0.04971414  0.41325463  0.87499990  1
  O  O460  1  0.95030285  0.41325298  0.87499996  1
  O  O461  1  0.95029680  0.58672888  0.87499886  1
  O  O462  1  0.95029901  0.49999774  0.83163182  1
  O  O463  1  0.95030046  0.49999677  0.91836700  1
  O  O464  1  0.45029402  0.99999667  0.91836697  1
  O  O465  1  0.45029655  0.99999560  0.83163179  1
  O  O466  1  0.45029839  0.91325819  0.87499569  1
  O  O467  1  0.45029217  0.08674040  0.87499990  1
  O  O468  1  0.54970347  0.08674205  0.87500026  1
  O  O469  1  0.54970952  0.91326616  0.87499921  1
  O  O470  1  0.54970784  0.99999725  0.83163215  1
  O  O471  1  0.54970532  0.99999832  0.91836733  1
  O  O472  1  0.45029450  0.49999722  0.83163156  1
  O  O473  1  0.45029603  0.49999832  0.91836675  1
  O  O474  1  0.45029837  0.58673572  0.87500283  1
  O  O475  1  0.45029215  0.41325350  0.87499864  1
  O  O476  1  0.54970345  0.41325185  0.87499857  1
  O  O477  1  0.54970950  0.58672774  0.87499959  1
  O  O478  1  0.54970732  0.49999667  0.91836667  1
  O  O479  1  0.54970580  0.49999557  0.83163149  1
  O  O480  1  0.00000178  0.95029570  0.33163236  1
  O  O481  1  0.00000077  0.95029698  0.41836754  1
  O  O482  1  0.91326350  0.95029944  0.37500365  1
  O  O483  1  0.08674538  0.95029323  0.37499941  1
  O  O484  1  0.08674703  0.04970471  0.37499940  1
  O  O485  1  0.91327147  0.04971077  0.37500048  1
  O  O486  1  0.00000242  0.04970847  0.41836753  1
  O  O487  1  0.00000343  0.04970718  0.33163235  1
  O  O488  1  0.00000173  0.45029553  0.33163156  1
  O  O489  1  0.00000073  0.45029691  0.41836675  1
  O  O490  1  0.91326345  0.45029932  0.37500286  1
  O  O491  1  0.08674533  0.45029311  0.37499861  1
  O  O492  1  0.08674698  0.54970459  0.37499858  1
  O  O493  1  0.91327142  0.54971065  0.37499966  1
  O  O494  1  0.00000238  0.54970839  0.41836671  1
  O  O495  1  0.00000338  0.54970702  0.33163153  1
  O  O496  1  0.50000206  0.95029211  0.33163238  1
  O  O497  1  0.50000102  0.95029456  0.41836756  1
  O  O498  1  0.41326376  0.95029644  0.37500366  1
  O  O499  1  0.58674564  0.95029022  0.37499944  1
  O  O500  1  0.58674729  0.04970171  0.37499910  1
  O  O501  1  0.41327173  0.04970776  0.37500016  1
  O  O502  1  0.50000267  0.04970605  0.41836722  1
  O  O503  1  0.50000371  0.04970360  0.33163204  1
  O  O504  1  0.50000196  0.45029157  0.33163157  1
  O  O505  1  0.50000091  0.45029396  0.41836675  1
  O  O506  1  0.41326366  0.45029587  0.37500286  1
  O  O507  1  0.58674554  0.45028966  0.37499863  1
  O  O508  1  0.58674719  0.54970114  0.37499831  1
  O  O509  1  0.41327163  0.54970720  0.37499937  1
  O  O510  1  0.50000256  0.54970545  0.41836643  1
  O  O511  1  0.50000361  0.54970306  0.33163125  1
  O  O512  1  0.00000363  0.95028863  0.66836747  1
  O  O513  1  0.00000464  0.95029135  0.58163229  1
  O  O514  1  0.08674192  0.95029309  0.62499618  1
  O  O515  1  0.91326004  0.95028688  0.62500041  1
  O  O516  1  0.91325839  0.04969837  0.62500083  1
  O  O517  1  0.08673394  0.04970442  0.62499975  1
  O  O518  1  0.00000299  0.04970284  0.58163270  1
  O  O519  1  0.00000198  0.04970012  0.66836788  1
  O  O520  1  0.00000303  0.45028987  0.58163065  1
  O  O521  1  0.00000202  0.45029121  0.66836583  1
  O  O522  1  0.91326474  0.45029364  0.62500194  1
  O  O523  1  0.08674662  0.45028743  0.62499770  1
  O  O524  1  0.08674827  0.54969892  0.62499767  1
  O  O525  1  0.91327272  0.54970497  0.62499875  1
  O  O526  1  0.00000367  0.54970270  0.66836580  1
  O  O527  1  0.00000468  0.54970135  0.58163062  1
  O  O528  1  0.50000291  0.04970594  0.66836803  1
  O  O529  1  0.50000174  0.04970428  0.58163285  1
  O  O530  1  0.41326455  0.04970201  0.62499678  1
  O  O531  1  0.58674643  0.04970822  0.62500094  1
  O  O532  1  0.58674808  0.95029674  0.62500106  1
  O  O533  1  0.41327252  0.95029068  0.62500006  1
  O  O534  1  0.50000339  0.95029280  0.58163297  1
  O  O535  1  0.50000456  0.95029445  0.66836815  1
  O  O536  1  0.50000288  0.54970566  0.66836561  1
  O  O537  1  0.50000170  0.54970391  0.58163043  1
  O  O538  1  0.41326451  0.54970169  0.62499436  1
  O  O539  1  0.58674639  0.54970790  0.62499852  1
  O  O540  1  0.58674804  0.45029641  0.62499866  1
  O  O541  1  0.41327248  0.45029036  0.62499766  1
  O  O542  1  0.50000335  0.45029242  0.58163057  1
  O  O543  1  0.50000453  0.45029418  0.66836575  1
