# generated using pymatgen
data_NdH4(C3O4)2
_symmetry_space_group_name_H-M   'P 1'
_cell_length_a   10.23860000
_cell_length_b   10.23860000
_cell_length_c   11.90841420
_cell_angle_alpha   64.53946412
_cell_angle_beta   64.53946412
_cell_angle_gamma   60.00000000
_symmetry_Int_Tables_number   1
_chemical_formula_structural   NdH4(C3O4)2
_chemical_formula_sum   'Nd3 H12 C18 O24'
_cell_volume   938.50006901
_cell_formula_units_Z   3
loop_
 _symmetry_equiv_pos_site_id
 _symmetry_equiv_pos_as_xyz
  1  'x, y, z'
loop_
 _atom_site_type_symbol
 _atom_site_label
 _atom_site_symmetry_multiplicity
 _atom_site_fract_x
 _atom_site_fract_y
 _atom_site_fract_z
 _atom_site_occupancy
  C  C0  1  0.90510000  0.93007000  0.83032000  1
  C  C1  1  0.87149000  0.88308000  0.74458000  1
  C  C2  1  0.01021000  0.85353000  0.62512000  1
  C  C3  1  0.93007000  0.33451000  0.83032000  1
  C  C4  1  0.88308000  0.50085000  0.74458000  1
  C  C5  1  0.85353000  0.51114000  0.62512000  1
  C  C6  1  0.33451000  0.90510000  0.83032000  1
  C  C7  1  0.50085000  0.87149000  0.74458000  1
  C  C8  1  0.51114000  0.01021000  0.62512000  1
  C  C9  1  0.09490000  0.06993000  0.16968000  1
  C  C10  1  0.12851000  0.11692000  0.25542000  1
  C  C11  1  0.98979000  0.14647000  0.37488000  1
  C  C12  1  0.06993000  0.66549000  0.16968000  1
  C  C13  1  0.11692000  0.49915000  0.25542000  1
  C  C14  1  0.14647000  0.48886000  0.37488000  1
  C  C15  1  0.66549000  0.09490000  0.16968000  1
  C  C16  1  0.49915000  0.12851000  0.25542000  1
  C  C17  1  0.48886000  0.98979000  0.37488000  1
  H  H18  1  0.77900000  0.96570000  0.71770000  1
  H  H19  1  0.85000000  0.78870000  0.79300000  1
  H  H20  1  0.96570000  0.53760000  0.71770000  1
  H  H21  1  0.78870000  0.56830000  0.79300000  1
  H  H22  1  0.53760000  0.77900000  0.71770000  1
  H  H23  1  0.56830000  0.85000000  0.79300000  1
  H  H24  1  0.22100000  0.03430000  0.28230000  1
  H  H25  1  0.15000000  0.21130000  0.20700000  1
  H  H26  1  0.03430000  0.46240000  0.28230000  1
  H  H27  1  0.21130000  0.43170000  0.20700000  1
  H  H28  1  0.46240000  0.22100000  0.28230000  1
  H  H29  1  0.43170000  0.15000000  0.20700000  1
  Nd  Nd30  1  0.00000000  0.00000000  0.00000000  1
  Nd  Nd31  1  0.13188000  0.13188000  0.60436000  1
  Nd  Nd32  1  0.86812000  0.86812000  0.39564000  1
  O  O33  1  0.93002000  0.83539000  0.93640000  1
  O  O34  1  0.91380000  0.06441000  0.79009000  1
  O  O35  1  0.12522000  0.88371000  0.60520000  1
  O  O36  1  0.00522000  0.79551000  0.55306000  1
  O  O37  1  0.83539000  0.29819000  0.93640000  1
  O  O38  1  0.06441000  0.23170000  0.79009000  1
  O  O39  1  0.88371000  0.38587000  0.60520000  1
  O  O40  1  0.79551000  0.64621000  0.55306000  1
  O  O41  1  0.29819000  0.93002000  0.93640000  1
  O  O42  1  0.23170000  0.91380000  0.79009000  1
  O  O43  1  0.38587000  0.12522000  0.60520000  1
  O  O44  1  0.64621000  0.00522000  0.55306000  1
  O  O45  1  0.06998000  0.16461000  0.06360000  1
  O  O46  1  0.08620000  0.93559000  0.20991000  1
  O  O47  1  0.87478000  0.11629000  0.39480000  1
  O  O48  1  0.99478000  0.20449000  0.44694000  1
  O  O49  1  0.16461000  0.70181000  0.06360000  1
  O  O50  1  0.93559000  0.76830000  0.20991000  1
  O  O51  1  0.11629000  0.61413000  0.39480000  1
  O  O52  1  0.20449000  0.35379000  0.44694000  1
  O  O53  1  0.70181000  0.06998000  0.06360000  1
  O  O54  1  0.76830000  0.08620000  0.20991000  1
  O  O55  1  0.61413000  0.87478000  0.39480000  1
  O  O56  1  0.35379000  0.99478000  0.44694000  1
