# generated using pymatgen
data_CoH12C16(NO2)2
_symmetry_space_group_name_H-M   'P 1'
_cell_length_a   8.20100000
_cell_length_b   10.49200000
_cell_length_c   11.12500000
_cell_angle_alpha   90.00000000
_cell_angle_beta   95.28000000
_cell_angle_gamma   90.00000000
_symmetry_Int_Tables_number   1
_chemical_formula_structural   CoH12C16(NO2)2
_chemical_formula_sum   'Co2 H24 C32 N4 O8'
_cell_volume   953.18770022
_cell_formula_units_Z   2
loop_
 _symmetry_equiv_pos_site_id
 _symmetry_equiv_pos_as_xyz
  1  'x, y, z'
loop_
 _atom_site_type_symbol
 _atom_site_label
 _atom_site_symmetry_multiplicity
 _atom_site_fract_x
 _atom_site_fract_y
 _atom_site_fract_z
 _atom_site_occupancy
  Co  Co0  1  0.00000000  0.50000000  0.00000000  1
  Co  Co1  1  0.50000000  0.00000000  0.50000000  1
  H  H2  1  0.70160000  0.40010000  0.90040000  1
  H  H3  1  0.45800000  0.46550000  0.81230000  1
  H  H4  1  0.63700000  0.82410000  0.79900000  1
  H  H5  1  0.87490000  0.74890000  0.88910000  1
  H  H6  1  0.26800000  0.82210000  0.63150000  1
  H  H7  1  0.11910000  0.69130000  0.76060000  1
  H  H8  1  0.79840000  0.90010000  0.59960000  1
  H  H9  1  0.04200000  0.96550000  0.68770000  1
  H  H10  1  0.86300000  0.32410000  0.70100000  1
  H  H11  1  0.62510000  0.24890000  0.61090000  1
  H  H12  1  0.23200000  0.32210000  0.86850000  1
  H  H13  1  0.38090000  0.19130000  0.73940000  1
  H  H14  1  0.29840000  0.59990000  0.09960000  1
  H  H15  1  0.54200000  0.53450000  0.18770000  1
  H  H16  1  0.36300000  0.17590000  0.20100000  1
  H  H17  1  0.12510000  0.25110000  0.11090000  1
  H  H18  1  0.73200000  0.17790000  0.36850000  1
  H  H19  1  0.88090000  0.30870000  0.23940000  1
  H  H20  1  0.20160000  0.09990000  0.40040000  1
  H  H21  1  0.95800000  0.03450000  0.31230000  1
  H  H22  1  0.13700000  0.67590000  0.29900000  1
  H  H23  1  0.37490000  0.75110000  0.38910000  1
  H  H24  1  0.76800000  0.67790000  0.13150000  1
  H  H25  1  0.61910000  0.80870000  0.26060000  1
  C  C26  1  0.68530000  0.48730000  0.87980000  1
  C  C27  1  0.54460000  0.52480000  0.82890000  1
  C  C28  1  0.64860000  0.73680000  0.82070000  1
  C  C29  1  0.78540000  0.69220000  0.87230000  1
  C  C30  1  0.52210000  0.65250000  0.79890000  1
  C  C31  1  0.37090000  0.69690000  0.75070000  1
  C  C32  1  0.37230000  0.78830000  0.65880000  1
  C  C33  1  0.21560000  0.65390000  0.79910000  1
  C  C34  1  0.81470000  0.98730000  0.62020000  1
  C  C35  1  0.95540000  0.02480000  0.67110000  1
  C  C36  1  0.85140000  0.23680000  0.67930000  1
  C  C37  1  0.71460000  0.19220000  0.62770000  1
  C  C38  1  0.97790000  0.15250000  0.70110000  1
  C  C39  1  0.12910000  0.19690000  0.74930000  1
  C  C40  1  0.12770000  0.28830000  0.84120000  1
  C  C41  1  0.28440000  0.15390000  0.70090000  1
  C  C42  1  0.31470000  0.51270000  0.12020000  1
  C  C43  1  0.45540000  0.47520000  0.17110000  1
  C  C44  1  0.35140000  0.26320000  0.17930000  1
  C  C45  1  0.21460000  0.30780000  0.12770000  1
  C  C46  1  0.47790000  0.34750000  0.20110000  1
  C  C47  1  0.62910000  0.30310000  0.24930000  1
  C  C48  1  0.62770000  0.21170000  0.34120000  1
  C  C49  1  0.78440000  0.34610000  0.20090000  1
  C  C50  1  0.18530000  0.01270000  0.37980000  1
  C  C51  1  0.04460000  0.97520000  0.32890000  1
  C  C52  1  0.14860000  0.76320000  0.32070000  1
  C  C53  1  0.28540000  0.80780000  0.37230000  1
  C  C54  1  0.02210000  0.84750000  0.29890000  1
  C  C55  1  0.87090000  0.80310000  0.25070000  1
  C  C56  1  0.87230000  0.71170000  0.15880000  1
  C  C57  1  0.71560000  0.84610000  0.29910000  1
  N  N58  1  0.80490000  0.56920000  0.90272000  1
  N  N59  1  0.69510000  0.06920000  0.59728000  1
  N  N60  1  0.19510000  0.43080000  0.09728000  1
  N  N61  1  0.30490000  0.93080000  0.40272000  1
  O  O62  1  0.49890000  0.83585000  0.60306000  1
  O  O63  1  0.19070000  0.57570000  0.88302000  1
  O  O64  1  0.00110000  0.33585000  0.89694000  1
  O  O65  1  0.30930000  0.07570000  0.61698000  1
  O  O66  1  0.50110000  0.16415000  0.39694000  1
  O  O67  1  0.80930000  0.42430000  0.11698000  1
  O  O68  1  0.99890000  0.66415000  0.10306000  1
  O  O69  1  0.69070000  0.92430000  0.38302000  1
