# generated using pymatgen
data_Na6TbH24C40S8N8ClO36
_symmetry_space_group_name_H-M   'P 1'
_cell_length_a   12.24500000
_cell_length_b   12.24500000
_cell_length_c   12.40700000
_cell_angle_alpha   90.00000000
_cell_angle_beta   90.00000000
_cell_angle_gamma   90.00000000
_symmetry_Int_Tables_number   1
_chemical_formula_structural   Na6TbH24C40S8N8ClO36
_chemical_formula_sum   'Na6 Tb1 H24 C40 S8 N8 Cl1 O36'
_cell_volume   1860.30589017
_cell_formula_units_Z   1
loop_
 _symmetry_equiv_pos_site_id
 _symmetry_equiv_pos_as_xyz
  1  'x, y, z'
loop_
 _atom_site_type_symbol
 _atom_site_label
 _atom_site_symmetry_multiplicity
 _atom_site_fract_x
 _atom_site_fract_y
 _atom_site_fract_z
 _atom_site_occupancy
  Na  Na0  1  0.52840000  0.27310000  0.99380000  1
  Na  Na1  1  0.47160000  0.72690000  0.99380000  1
  Na  Na2  1  0.27310000  0.47160000  0.00620000  1
  Na  Na3  1  0.72690000  0.52840000  0.00620000  1
  Na  Na4  1  0.00000000  0.50000000  0.98660000  1
  Na  Na5  1  0.50000000  0.00000000  0.01340000  1
  Tb  Tb6  1  0.00000000  0.00000000  0.50000000  1
  H  H7  1  0.84340000  0.72550000  0.38180000  1
  H  H8  1  0.66666667  0.67390000  0.33990000  1
  H  H9  1  0.60800000  0.98060000  0.23340000  1
  H  H10  1  0.77670000  0.05510000  0.09670000  1
  H  H11  1  0.88800000  0.34960000  0.20210000  1
  H  H12  1  0.89680000  0.28060000  0.37670000  1
  H  H13  1  0.15660000  0.27450000  0.38180000  1
  H  H14  1  0.33340000  0.32610000  0.33990000  1
  H  H15  1  0.39200000  0.01940000  0.23340000  1
  H  H16  1  0.22330000  0.94490000  0.09670000  1
  H  H17  1  0.11200000  0.65040000  0.20210000  1
  H  H18  1  0.10320000  0.71940000  0.37670000  1
  H  H19  1  0.72550000  0.15660000  0.61820000  1
  H  H20  1  0.67390000  0.33340000  0.66010000  1
  H  H21  1  0.98060000  0.39200000  0.76660000  1
  H  H22  1  0.05510000  0.22330000  0.90330000  1
  H  H23  1  0.34960000  0.11200000  0.79790000  1
  H  H24  1  0.28060000  0.10320000  0.62330000  1
  H  H25  1  0.27450000  0.84340000  0.61820000  1
  H  H26  1  0.32610000  0.66666667  0.66010000  1
  H  H27  1  0.01940000  0.60800000  0.76660000  1
  H  H28  1  0.94490000  0.77670000  0.90330000  1
  H  H29  1  0.65040000  0.88800000  0.79790000  1
  H  H30  1  0.71940000  0.89680000  0.62330000  1
  C  C31  1  0.79550000  0.77720000  0.34980000  1
  C  C32  1  0.69070000  0.74610000  0.32530000  1
  C  C33  1  0.62020000  0.82170000  0.27900000  1
  C  C34  1  0.65630000  0.92750000  0.26250000  1
  C  C35  1  0.76410000  0.95650000  0.28860000  1
  C  C36  1  0.80590000  0.06440000  0.26070000  1
  C  C37  1  0.80050000  0.10190000  0.15300000  1
  C  C38  1  0.83100000  0.20900000  0.13190000  1
  C  C39  1  0.86700000  0.27630000  0.21620000  1
  C  C40  1  0.87160000  0.23560000  0.31950000  1
  C  C41  1  0.20450000  0.22280000  0.34980000  1
  C  C42  1  0.30930000  0.25390000  0.32530000  1
  C  C43  1  0.37980000  0.17830000  0.27900000  1
  C  C44  1  0.34370000  0.07250000  0.26250000  1
  C  C45  1  0.23590000  0.04350000  0.28860000  1
  C  C46  1  0.19410000  0.93560000  0.26070000  1
  C  C47  1  0.19950000  0.89810000  0.15300000  1
  C  C48  1  0.16900000  0.79100000  0.13190000  1
  C  C49  1  0.13300000  0.72370000  0.21620000  1
  C  C50  1  0.12840000  0.76440000  0.31950000  1
  C  C51  1  0.77720000  0.20450000  0.65020000  1
  C  C52  1  0.74610000  0.30930000  0.67470000  1
  C  C53  1  0.82170000  0.37980000  0.72100000  1
  C  C54  1  0.92750000  0.34370000  0.73750000  1
  C  C55  1  0.95650000  0.23590000  0.71140000  1
  C  C56  1  0.06440000  0.19410000  0.73930000  1
  C  C57  1  0.10190000  0.19950000  0.84700000  1
  C  C58  1  0.20900000  0.16900000  0.86810000  1
  C  C59  1  0.27630000  0.13300000  0.78380000  1
  C  C60  1  0.23560000  0.12840000  0.68050000  1
  C  C61  1  0.22280000  0.79550000  0.65020000  1
  C  C62  1  0.25390000  0.69070000  0.67470000  1
  C  C63  1  0.17830000  0.62020000  0.72100000  1
  C  C64  1  0.07250000  0.65630000  0.73750000  1
  C  C65  1  0.04350000  0.76410000  0.71140000  1
  C  C66  1  0.93560000  0.80590000  0.73930000  1
  C  C67  1  0.89810000  0.80050000  0.84700000  1
  C  C68  1  0.79100000  0.83100000  0.86810000  1
  C  C69  1  0.72370000  0.86700000  0.78380000  1
  C  C70  1  0.76440000  0.87160000  0.68050000  1
  S  S71  1  0.48512000  0.78686000  0.23882000  1
  S  S72  1  0.81882000  0.26364000  0.99960000  1
  S  S73  1  0.51488000  0.21314000  0.23882000  1
  S  S74  1  0.18118000  0.73636000  0.99960000  1
  S  S75  1  0.78686000  0.51488000  0.76118000  1
  S  S76  1  0.26364000  0.18118000  0.00040000  1
  S  S77  1  0.21314000  0.48512000  0.76118000  1
  S  S78  1  0.73636000  0.81882000  0.00040000  1
  N  N79  1  0.83200000  0.87790000  0.33020000  1
  N  N80  1  0.84010000  0.13100000  0.33990000  1
  N  N81  1  0.16800000  0.12210000  0.33020000  1
  N  N82  1  0.15990000  0.86900000  0.33990000  1
  N  N83  1  0.87790000  0.16800000  0.66980000  1
  N  N84  1  0.13100000  0.15990000  0.66010000  1
  N  N85  1  0.12210000  0.83200000  0.66980000  1
  N  N86  1  0.86900000  0.84010000  0.66010000  1
  Cl  Cl87  1  0.50000000  0.50000000  0.00000000  1
  O  O88  1  0.93420000  0.90400000  0.34680000  1
  O  O89  1  0.84480000  0.09530000  0.44060000  1
  O  O90  1  0.71940000  0.32990000  0.00380000  1
  O  O91  1  0.91630000  0.32930000  0.98600000  1
  O  O92  1  0.81190000  0.17140000  0.92860000  1
  O  O93  1  0.41670000  0.80230000  0.33150000  1
  O  O94  1  0.49110000  0.67420000  0.20200000  1
  O  O95  1  0.45930000  0.85970000  0.15100000  1
  O  O96  1  0.88500000  0.58490000  0.11580000  1
  O  O97  1  0.06580000  0.09600000  0.34680000  1
  O  O98  1  0.15520000  0.90470000  0.44060000  1
  O  O99  1  0.28060000  0.67010000  0.00380000  1
  O  O100  1  0.08370000  0.67070000  0.98600000  1
  O  O101  1  0.18810000  0.82860000  0.92860000  1
  O  O102  1  0.58330000  0.19770000  0.33150000  1
  O  O103  1  0.50890000  0.32580000  0.20200000  1
  O  O104  1  0.54070000  0.14030000  0.15100000  1
  O  O105  1  0.11500000  0.41510000  0.11580000  1
  O  O106  1  0.90400000  0.06580000  0.65320000  1
  O  O107  1  0.09530000  0.15520000  0.55940000  1
  O  O108  1  0.32990000  0.28060000  0.99620000  1
  O  O109  1  0.32930000  0.08370000  0.01400000  1
  O  O110  1  0.17140000  0.18810000  0.07140000  1
  O  O111  1  0.80230000  0.58330000  0.66850000  1
  O  O112  1  0.67420000  0.50890000  0.79800000  1
  O  O113  1  0.85970000  0.54070000  0.84900000  1
  O  O114  1  0.58490000  0.11500000  0.88420000  1
  O  O115  1  0.09600000  0.93420000  0.65320000  1
  O  O116  1  0.90470000  0.84480000  0.55940000  1
  O  O117  1  0.67010000  0.71940000  0.99620000  1
  O  O118  1  0.67070000  0.91630000  0.01400000  1
  O  O119  1  0.82860000  0.81190000  0.07140000  1
  O  O120  1  0.19770000  0.41670000  0.66850000  1
  O  O121  1  0.32580000  0.49110000  0.79800000  1
  O  O122  1  0.14030000  0.45930000  0.84900000  1
  O  O123  1  0.41510000  0.88500000  0.88420000  1
