# generated using pymatgen
data_Al3H36C60O13
_symmetry_space_group_name_H-M   'P 1'
_cell_length_a   24.20642095
_cell_length_b   30.52452388
_cell_length_c   30.52485046
_cell_angle_alpha   119.99964660
_cell_angle_beta   90.00000019
_cell_angle_gamma   89.99999991
_symmetry_Int_Tables_number   1
_chemical_formula_structural   Al3H36C60O13
_chemical_formula_sum   'Al6 H72 C120 O26'
_cell_volume   19532.83148040
_cell_formula_units_Z   2
loop_
 _symmetry_equiv_pos_site_id
 _symmetry_equiv_pos_as_xyz
  1  'x, y, z'
loop_
 _atom_site_type_symbol
 _atom_site_label
 _atom_site_symmetry_multiplicity
 _atom_site_fract_x
 _atom_site_fract_y
 _atom_site_fract_z
 _atom_site_occupancy
  Al  Al0  1  0.25000413  0.69950998  0.39901406  1.0
  Al  Al1  1  0.25000413  0.69951079  0.30059220  1.0
  Al  Al2  1  0.25000413  0.60108578  0.30059374  1.0
  Al  Al3  1  0.75000413  0.30055626  0.60111842  1.0
  Al  Al4  1  0.75000413  0.30055545  0.69954028  1.0
  Al  Al5  1  0.75000413  0.39898045  0.69953874  1.0
  H  H6  1  0.92808848  0.22756644  0.57373022  1.0
  H  H7  1  0.99296100  0.14549290  0.53682308  1.0
  H  H8  1  0.85930630  0.06232409  0.57715915  1.0
  H  H9  1  0.79421028  0.14427616  0.61365305  1.0
  H  H10  1  0.03824356  0.08558134  0.50745738  1.0
  H  H11  1  0.10094126  0.00194859  0.46554734  1.0
  H  H12  1  0.96898451  0.91896361  0.50779123  1.0
  H  H13  1  0.90631532  0.00263285  0.54972551  1.0
  H  H14  1  0.14588837  0.94188379  0.43531579  1.0
  H  H15  1  0.20629622  0.85707757  0.38886923  1.0
  H  H16  1  0.07290605  0.77227844  0.42730600  1.0
  H  H17  1  0.01280263  0.85729410  0.47425367  1.0
  H  H18  1  0.28345449  0.86345557  0.44625934  1.0
  H  H19  1  0.34733837  0.94615072  0.49210956  1.0
  H  H20  1  0.50246298  0.84771524  0.41582805  1.0
  H  H21  1  0.43847697  0.76506525  0.36960210  1.0
  H  H22  1  0.39262681  0.00605857  0.52265127  1.0
  H  H23  1  0.45528956  0.08971330  0.56439806  1.0
  H  H24  1  0.61123344  0.99164651  0.49044841  1.0
  H  H25  1  0.54853763  0.90799402  0.44873198  1.0
  H  H26  1  0.50021517  0.14979161  0.59424611  1.0
  H  H27  1  0.56152984  0.23402769  0.63197837  1.0
  H  H28  1  0.71728125  0.13699474  0.55517727  1.0
  H  H29  1  0.65600764  0.05271485  0.51791889  1.0
  H  H30  1  0.29909393  0.52603755  0.37965891  1.0
  H  H31  1  0.36499114  0.48188628  0.41693673  1.0
  H  H32  1  0.48968908  0.61447442  0.47022194  1.0
  H  H33  1  0.42350948  0.65885909  0.43333602  1.0
  H  H34  1  0.41053391  0.45159789  0.44639626  1.0
  H  H35  1  0.47316446  0.40980798  0.48828133  1.0
  H  H36  1  0.59966809  0.54077896  0.53969776  1.0
  H  H37  1  0.53702113  0.58253658  0.49777218  1.0
  H  H38  1  0.51800904  0.37987262  0.51847525  1.0
  H  H39  1  0.57736708  0.34047166  0.56454075  1.0
  H  H40  1  0.70213992  0.47314081  0.61965654  1.0
  H  H41  1  0.64305460  0.51221866  0.57307844  1.0
  H  H42  1  0.89824127  0.46265998  0.67145569  1.0
  H  H43  1  0.96495900  0.50062580  0.62850846  1.0
  H  H44  1  0.89175726  0.38816960  0.47090197  1.0
  H  H45  1  0.82466142  0.35051553  0.51394224  1.0
  H  H46  1  0.01051682  0.53009854  0.59824275  1.0
  H  H47  1  0.07316860  0.57200224  0.55648483  1.0
  H  H48  1  0.00244169  0.45823766  0.39824238  1.0
  H  H49  1  0.93981645  0.41632942  0.44003100  1.0
  H  H50  1  0.11802165  0.60220389  0.52656253  1.0
  H  H51  1  0.17661879  0.64763304  0.48604666  1.0
  H  H52  1  0.10320521  0.53676731  0.32810071  1.0
  H  H53  1  0.04507655  0.49098950  0.36858053  1.0
  H  H54  1  0.21470245  0.59060504  0.13780130  1.0
  H  H55  1  0.15312987  0.54397597  0.05365353  1.0
  H  H56  1  0.00266069  0.54641896  0.14916043  1.0
  H  H57  1  0.06413318  0.59348325  0.23339022  1.0
  H  H58  1  0.10815216  0.51329507  0.99355091  1.0
  H  H59  1  0.04544487  0.47157677  0.90992509  1.0
  H  H60  1  0.89523197  0.47142949  0.00438692  1.0
  H  H61  1  0.95798370  0.51312771  0.08800335  1.0
  H  H62  1  0.00041721  0.44177934  0.84991159  1.0
  H  H63  1  0.93684808  0.40482117  0.76709418  1.0
  H  H64  1  0.78513166  0.40796876  0.86158874  1.0
  H  H65  1  0.84890407  0.44441020  0.94429631  1.0
  H  H66  1  0.36742865  0.51898988  0.18945051  1.0
  H  H67  1  0.42519806  0.47567702  0.10291107  1.0
  H  H68  1  0.40984817  0.62270789  0.09414049  1.0
  H  H69  1  0.35249265  0.66618233  0.18095928  1.0
  H  H70  1  0.46958925  0.44550756  0.04243961  1.0
  H  H71  1  0.53239967  0.40369933  0.95887864  1.0
  H  H72  1  0.51525123  0.54948472  0.94809311  1.0
  H  H73  1  0.45240847  0.59126230  0.03165230  1.0
  H  H74  1  0.57763104  0.37372426  0.89899324  1.0
  H  H75  1  0.64494199  0.33350337  0.81852893  1.0
  H  H76  1  0.63180768  0.48039447  0.80935496  1.0
  H  H77  1  0.56397776  0.52037390  0.88951091  1.0
  C  C78  1  0.32011776  0.61995532  0.38014651  1.0
  C  C79  1  0.32011776  0.76018901  0.38014433  1.0
  C  C80  1  0.32011776  0.61995568  0.23990917  1.0
  C  C81  1  0.17988224  0.61995532  0.38014651  1.0
  C  C82  1  0.17988224  0.76018901  0.38014433  1.0
  C  C83  1  0.17988224  0.61995568  0.23990917  1.0
  C  C84  1  0.82011776  0.38011092  0.61998597  1.0
  C  C85  1  0.82011776  0.23987723  0.61998815  1.0
  C  C86  1  0.82011776  0.38011056  0.76022331  1.0
  C  C87  1  0.67988224  0.38011092  0.61998597  1.0
  C  C88  1  0.67988224  0.23987723  0.61998815  1.0
  C  C89  1  0.67988224  0.38011056  0.76022331  1.0
  C  C90  1  0.85613402  0.19185532  0.59597723  1.0
  C  C91  1  0.91340950  0.19238354  0.57435233  1.0
  C  C92  1  0.95069903  0.14526579  0.55319145  1.0
  C  C93  1  0.93071706  0.09765862  0.55377239  1.0
  C  C94  1  0.87387976  0.09744106  0.57631866  1.0
  C  C95  1  0.83648325  0.14451029  0.59728053  1.0
  C  C96  1  0.96740581  0.05011104  0.53120009  1.0
  C  C97  1  0.02351292  0.05009219  0.50744496  1.0
  C  C98  1  0.05954414  0.00211559  0.48345581  1.0
  C  C99  1  0.03936717  0.95414909  0.48318739  1.0
  C  C100  1  0.98368775  0.95441735  0.50771444  1.0
  C  C101  1  0.94768057  0.00244584  0.53176451  1.0
  C  C102  1  0.07461634  0.90573809  0.45777468  1.0
  C  C103  1  0.13037990  0.90579848  0.43357942  1.0
  C  C104  1  0.16508738  0.85706846  0.40687297  1.0
  C  C105  1  0.14386598  0.80821091  0.40415525  1.0
  C  C106  1  0.08841247  0.80832592  0.42897317  1.0
  C  C107  1  0.05385498  0.85716835  0.45594850  1.0
  C  C108  1  0.35613402  0.80821091  0.40415525  1.0
  C  C109  1  0.33001485  0.86012693  0.43969705  1.0
  C  C110  1  0.36670099  0.90762407  0.46607128  1.0
  C  C111  1  0.42954025  0.90314753  0.45696108  1.0
  C  C112  1  0.45584856  0.85107746  0.42220228  1.0
  C  C113  1  0.41910077  0.80360032  0.39564620  1.0
  C  C114  1  0.46586717  0.95092263  0.48218662  1.0
  C  C115  1  0.43912663  0.00304178  0.51576686  1.0
  C  C116  1  0.47509958  0.05105502  0.53979456  1.0
  C  C117  1  0.53781758  0.04689147  0.53014334  1.0
  C  C118  1  0.56471923  0.99469052  0.49727002  1.0
  C  C119  1  0.52872088  0.94665648  0.47328555  1.0
  C  C120  1  0.57346061  0.09505481  0.55286910  1.0
  C  C121  1  0.54637206  0.14709755  0.58593306  1.0
  C  C122  1  0.58159153  0.19550566  0.60760240  1.0
  C  C123  1  0.64386598  0.19185532  0.59597723  1.0
  C  C124  1  0.67112260  0.13972647  0.56345875  1.0
  C  C125  1  0.63592750  0.09128493  0.54203279  1.0
  C  C126  1  0.35613313  0.59594492  0.40415640  1.0
  C  C127  1  0.33956613  0.54490124  0.39902224  1.0
  C  C128  1  0.37742806  0.51951140  0.42039016  1.0
  C  C129  1  0.43192630  0.54515192  0.44679903  1.0
  C  C130  1  0.44907082  0.59572302  0.45106232  1.0
  C  C131  1  0.41106128  0.62122305  0.42987866  1.0
  C  C132  1  0.46885602  0.52041514  0.46945828  1.0
  C  C133  1  0.45073923  0.47057651  0.46631612  1.0
  C  C134  1  0.48672531  0.44654396  0.49028855  1.0
  C  C135  1  0.54079562  0.47244356  0.51746235  1.0
  C  C136  1  0.55941447  0.52183342  0.51985953  1.0
  C  C137  1  0.52342940  0.54583412  0.49581784  1.0
  C  C138  1  0.57582649  0.44922851  0.54279558  1.0
  C  C139  1  0.55715506  0.39970001  0.54001707  1.0
  C  C140  1  0.59124449  0.37706341  0.56649919  1.0
  C  C141  1  0.64386687  0.40412131  0.59597607  1.0
  C  C142  1  0.66297031  0.45332345  0.59817613  1.0
  C  C143  1  0.62902596  0.47579871  0.57142334  1.0
  C  C144  1  0.85613313  0.40412131  0.59597607  1.0
  C  C145  1  0.89677360  0.44689874  0.62882008  1.0
  C  C146  1  0.93513234  0.46868321  0.60415925  1.0
  C  C147  1  0.93290227  0.44758224  0.54661518  1.0
  C  C148  1  0.89303712  0.40409958  0.51358863  1.0
  C  C149  1  0.85449362  0.38246827  0.53830519  1.0
  C  C150  1  0.97012224  0.47048506  0.52230451  1.0
  C  C151  1  0.00877281  0.51488594  0.55570823  1.0
  C  C152  1  0.04479934  0.53889272  0.53173547  1.0
  C  C153  1  0.04206841  0.51849562  0.47434357  1.0
  C  C154  1  0.00412602  0.47352239  0.44079333  1.0
  C  C155  1  0.96813599  0.44947604  0.46478625  1.0
  C  C156  1  0.07678660  0.54356749  0.45067050  1.0
  C  C157  1  0.11487008  0.58832158  0.48436607  1.0
  C  C158  1  0.14852801  0.61444284  0.46109723  1.0
  C  C159  1  0.14386687  0.59594492  0.40415640  1.0
  C  C160  1  0.10633136  0.55070948  0.37030449  1.0
  C  C161  1  0.07291264  0.52439639  0.39355004  1.0
  C  C162  1  0.14386542  0.59594425  0.19188675  1.0
  C  C163  1  0.16957327  0.58131213  0.14022990  1.0
  C  C164  1  0.13423318  0.55449119  0.09188679  1.0
  C  C165  1  0.07319873  0.54221648  0.09522832  1.0
  C  C166  1  0.04773920  0.55593357  0.14676412  1.0
  C  C167  1  0.08304268  0.58296866  0.19514902  1.0
  C  C168  1  0.03755423  0.51677838  0.04702458  1.0
  C  C169  1  0.06283071  0.50443858  0.99582666  1.0
  C  C170  1  0.02686521  0.48042209  0.94780925  1.0
  C  C171  1  0.96558880  0.46883110  0.95106621  1.0
  C  C172  1  0.94052834  0.48036306  0.00210878  1.0
  C  C173  1  0.97654428  0.50433751  0.05013124  1.0
  C  C174  1  0.92925629  0.44631313  0.90333698  1.0
  C  C175  1  0.95462822  0.43460267  0.85237429  1.0
  C  C176  1  0.91810502  0.41338407  0.80478658  1.0
  C  C177  1  0.85613459  0.40412199  0.80824573  1.0
  C  C178  1  0.83089583  0.41518871  0.85910509  1.0
  C  C179  1  0.86752367  0.43613796  0.90664510  1.0
  C  C180  1  0.35613458  0.59594424  0.19188674  1.0
  C  C181  1  0.37655998  0.54108571  0.16924140  1.0
  C  C182  1  0.40970024  0.51618293  0.11951488  1.0
  C  C183  1  0.42229617  0.54614477  0.09239523  1.0
  C  C184  1  0.40093619  0.60068666  0.11448796  1.0
  C  C185  1  0.36799245  0.62566414  0.16435682  1.0
  C  C186  1  0.45685591  0.52165253  0.04350933  1.0
  C  C187  1  0.47939259  0.46762149  0.02237933  1.0
  C  C188  1  0.51537603  0.44358934  0.97437320  1.0
  C  C189  1  0.52885605  0.47367498  0.94757278  1.0
  C  C190  1  0.50554002  0.52738938  0.96819316  1.0
  C  C191  1  0.46948595  0.55139707  0.01619165  1.0
  C  C192  1  0.56626965  0.45021434  0.90052341  1.0
  C  C193  1  0.58918767  0.39639690  0.87992848  1.0
  C  C194  1  0.62788149  0.37328561  0.83370580  1.0
  C  C195  1  0.64386542  0.40412199  0.80824573  1.0
  C  C196  1  0.62032563  0.45772173  0.82843007  1.0
  C  C197  1  0.58135319  0.48071539  0.87449565  1.0
  O  O198  1  0.30179204  0.66450969  0.40846413  1.0
  O  O199  1  0.30179204  0.74395253  0.33559032  1.0
  O  O200  1  0.30179204  0.59164156  0.25615311  1.0
  O  O201  1  0.30179204  0.59163684  0.33559269  1.0
  O  O202  1  0.30179204  0.66451355  0.25615198  1.0
  O  O203  1  0.30179204  0.74395340  0.40846290  1.0
  O  O204  1  0.19820796  0.66450969  0.40846413  1.0
  O  O205  1  0.19820796  0.74395253  0.33559032  1.0
  O  O206  1  0.19820796  0.59164156  0.25615311  1.0
  O  O207  1  0.19820796  0.59163684  0.33559269  1.0
  O  O208  1  0.19820796  0.66451355  0.25615198  1.0
  O  O209  1  0.19820796  0.74395340  0.40846290  1.0
  O  O210  1  0.25000413  0.66670092  0.33336759  1.0
  O  O211  1  0.80179205  0.33555654  0.59166834  1.0
  O  O212  1  0.80179205  0.25611371  0.66454216  1.0
  O  O213  1  0.80179205  0.40842468  0.74397937  1.0
  O  O214  1  0.80179205  0.40842940  0.66453979  1.0
  O  O215  1  0.80179205  0.33555269  0.74398050  1.0
  O  O216  1  0.80179205  0.25611284  0.59166958  1.0
  O  O217  1  0.69820796  0.33555654  0.59166834  1.0
  O  O218  1  0.69820796  0.25611371  0.66454216  1.0
  O  O219  1  0.69820796  0.40842468  0.74397937  1.0
  O  O220  1  0.69820796  0.40842940  0.66453979  1.0
  O  O221  1  0.69820796  0.33555269  0.74398050  1.0
  O  O222  1  0.69820796  0.25611284  0.59166958  1.0
  O  O223  1  0.75000413  0.33333333  0.66666667  1.0
