# generated using pymatgen
data_CdH10C16(NO)4
_symmetry_space_group_name_H-M   'P 1'
_cell_length_a   10.25150000
_cell_length_b   12.38450000
_cell_length_c   16.60380000
_cell_angle_alpha   90.00000000
_cell_angle_beta   94.92200000
_cell_angle_gamma   90.00000000
_symmetry_Int_Tables_number   1
_chemical_formula_structural   CdH10C16(NO)4
_chemical_formula_sum   'Cd4 H40 C64 N16 O16'
_cell_volume   2100.24003805
_cell_formula_units_Z   4
loop_
 _symmetry_equiv_pos_site_id
 _symmetry_equiv_pos_as_xyz
  1  'x, y, z'
loop_
 _atom_site_type_symbol
 _atom_site_label
 _atom_site_symmetry_multiplicity
 _atom_site_fract_x
 _atom_site_fract_y
 _atom_site_fract_z
 _atom_site_occupancy
  Cd  Cd0  1  0.48499000  0.70055000  0.03395000  1
  Cd  Cd1  1  0.01501000  0.20055000  0.46605000  1
  Cd  Cd2  1  0.51501000  0.29945000  0.96605000  1
  Cd  Cd3  1  0.98499000  0.79945000  0.53395000  1
  H  H4  1  0.20130000  0.46240000  0.15400000  1
  H  H5  1  0.80910000  0.46630000  0.16300000  1
  H  H6  1  0.98390000  0.69340000  0.03470000  1
  H  H7  1  0.05530000  0.13660000  0.12840000  1
  H  H8  1  0.10790000  0.24930000  0.09980000  1
  H  H9  1  0.95540000  0.22580000  0.09310000  1
  H  H10  1  0.82130000  0.43490000  0.39640000  1
  H  H11  1  0.81200000  0.58860000  0.47440000  1
  H  H12  1  0.14300000  0.69330000  0.40340000  1
  H  H13  1  0.16020000  0.54560000  0.32070000  1
  H  H14  1  0.29870000  0.96240000  0.34600000  1
  H  H15  1  0.69090000  0.96630000  0.33700000  1
  H  H16  1  0.51610000  0.19340000  0.46530000  1
  H  H17  1  0.44470000  0.63660000  0.37160000  1
  H  H18  1  0.39210000  0.74930000  0.40020000  1
  H  H19  1  0.54460000  0.72580000  0.40690000  1
  H  H20  1  0.67870000  0.93490000  0.10360000  1
  H  H21  1  0.68800000  0.08860000  0.02560000  1
  H  H22  1  0.35700000  0.19330000  0.09660000  1
  H  H23  1  0.33980000  0.04560000  0.17930000  1
  H  H24  1  0.79870000  0.53760000  0.84600000  1
  H  H25  1  0.19090000  0.53370000  0.83700000  1
  H  H26  1  0.01610000  0.30660000  0.96530000  1
  H  H27  1  0.94470000  0.86340000  0.87160000  1
  H  H28  1  0.89210000  0.75070000  0.90020000  1
  H  H29  1  0.04460000  0.77420000  0.90690000  1
  H  H30  1  0.17870000  0.56510000  0.60360000  1
  H  H31  1  0.18800000  0.41140000  0.52560000  1
  H  H32  1  0.85700000  0.30670000  0.59660000  1
  H  H33  1  0.83980000  0.45440000  0.67930000  1
  H  H34  1  0.70130000  0.03760000  0.65400000  1
  H  H35  1  0.30910000  0.03370000  0.66300000  1
  H  H36  1  0.48390000  0.80660000  0.53470000  1
  H  H37  1  0.55530000  0.36340000  0.62840000  1
  H  H38  1  0.60790000  0.25070000  0.59980000  1
  H  H39  1  0.45540000  0.27420000  0.59310000  1
  H  H40  1  0.32130000  0.06510000  0.89640000  1
  H  H41  1  0.31200000  0.91140000  0.97440000  1
  H  H42  1  0.64300000  0.80670000  0.90340000  1
  H  H43  1  0.66020000  0.95440000  0.82070000  1
  C  C44  1  0.23340000  0.63450000  0.06050000  1
  C  C45  1  0.11050000  0.58470000  0.08920000  1
  C  C46  1  0.11980000  0.49480000  0.13950000  1
  C  C47  1  0.00720000  0.45420000  0.16750000  1
  C  C48  1  0.88490000  0.49700000  0.14460000  1
  C  C49  1  0.87670000  0.58630000  0.09370000  1
  C  C50  1  0.98950000  0.63130000  0.06740000  1
  C  C51  1  0.74460000  0.63550000  0.06850000  1
  C  C52  1  0.03780000  0.21350000  0.12510000  1
  C  C53  1  0.02970000  0.25770000  0.20760000  1
  C  C54  1  0.00680000  0.37060000  0.30550000  1
  C  C55  1  0.99400000  0.47150000  0.35110000  1
  C  C56  1  0.88870000  0.48650000  0.39710000  1
  C  C57  1  0.88440000  0.57840000  0.44410000  1
  C  C58  1  0.07770000  0.63990000  0.40220000  1
  C  C59  1  0.08930000  0.55160000  0.35270000  1
  C  C60  1  0.26660000  0.13450000  0.43950000  1
  C  C61  1  0.38950000  0.08470000  0.41080000  1
  C  C62  1  0.38020000  0.99480000  0.36050000  1
  C  C63  1  0.49280000  0.95420000  0.33250000  1
  C  C64  1  0.61510000  0.99700000  0.35540000  1
  C  C65  1  0.62330000  0.08630000  0.40630000  1
  C  C66  1  0.51050000  0.13130000  0.43260000  1
  C  C67  1  0.75540000  0.13550000  0.43150000  1
  C  C68  1  0.46220000  0.71350000  0.37490000  1
  C  C69  1  0.47030000  0.75770000  0.29240000  1
  C  C70  1  0.49320000  0.87060000  0.19450000  1
  C  C71  1  0.50600000  0.97150000  0.14890000  1
  C  C72  1  0.61130000  0.98650000  0.10290000  1
  C  C73  1  0.61560000  0.07840000  0.05590000  1
  C  C74  1  0.42230000  0.13990000  0.09780000  1
  C  C75  1  0.41070000  0.05160000  0.14730000  1
  C  C76  1  0.76660000  0.36550000  0.93950000  1
  C  C77  1  0.88950000  0.41530000  0.91080000  1
  C  C78  1  0.88020000  0.50520000  0.86050000  1
  C  C79  1  0.99280000  0.54580000  0.83250000  1
  C  C80  1  0.11510000  0.50300000  0.85540000  1
  C  C81  1  0.12330000  0.41370000  0.90630000  1
  C  C82  1  0.01050000  0.36870000  0.93260000  1
  C  C83  1  0.25540000  0.36450000  0.93150000  1
  C  C84  1  0.96220000  0.78650000  0.87490000  1
  C  C85  1  0.97030000  0.74230000  0.79240000  1
  C  C86  1  0.99320000  0.62940000  0.69450000  1
  C  C87  1  0.00600000  0.52850000  0.64890000  1
  C  C88  1  0.11130000  0.51350000  0.60290000  1
  C  C89  1  0.11560000  0.42160000  0.55590000  1
  C  C90  1  0.92230000  0.36010000  0.59780000  1
  C  C91  1  0.91070000  0.44840000  0.64730000  1
  C  C92  1  0.73340000  0.86550000  0.56050000  1
  C  C93  1  0.61050000  0.91530000  0.58920000  1
  C  C94  1  0.61980000  0.00520000  0.63950000  1
  C  C95  1  0.50720000  0.04580000  0.66750000  1
  C  C96  1  0.38490000  0.00300000  0.64460000  1
  C  C97  1  0.37670000  0.91370000  0.59370000  1
  C  C98  1  0.48950000  0.86870000  0.56740000  1
  C  C99  1  0.24460000  0.86450000  0.56850000  1
  C  C100  1  0.53780000  0.28650000  0.62510000  1
  C  C101  1  0.52970000  0.24230000  0.70760000  1
  C  C102  1  0.50680000  0.12940000  0.80550000  1
  C  C103  1  0.49400000  0.02850000  0.85110000  1
  C  C104  1  0.38870000  0.01350000  0.89710000  1
  C  C105  1  0.38440000  0.92160000  0.94410000  1
  C  C106  1  0.57770000  0.86010000  0.90220000  1
  C  C107  1  0.58930000  0.94840000  0.85270000  1
  N  N108  1  0.01630000  0.36540000  0.22430000  1
  N  N109  1  0.02800000  0.20110000  0.27400000  1
  N  N110  1  0.01330000  0.27400000  0.33640000  1
  N  N111  1  0.97880000  0.65370000  0.44840000  1
  N  N112  1  0.48370000  0.86540000  0.27570000  1
  N  N113  1  0.47200000  0.70110000  0.22600000  1
  N  N114  1  0.48670000  0.77400000  0.16360000  1
  N  N115  1  0.52120000  0.15370000  0.05160000  1
  N  N116  1  0.98370000  0.63460000  0.77570000  1
  N  N117  1  0.97200000  0.79890000  0.72600000  1
  N  N118  1  0.98670000  0.72600000  0.66360000  1
  N  N119  1  0.02120000  0.34630000  0.55160000  1
  N  N120  1  0.51630000  0.13460000  0.72430000  1
  N  N121  1  0.52800000  0.29890000  0.77400000  1
  N  N122  1  0.51330000  0.22600000  0.83640000  1
  N  N123  1  0.47880000  0.84630000  0.94840000  1
  O  O124  1  0.33430000  0.57640000  0.06680000  1
  O  O125  1  0.23160000  0.72670000  0.03410000  1
  O  O126  1  0.73750000  0.71970000  0.02880000  1
  O  O127  1  0.64570000  0.58740000  0.09030000  1
  O  O128  1  0.16570000  0.07640000  0.43320000  1
  O  O129  1  0.26840000  0.22670000  0.46590000  1
  O  O130  1  0.76250000  0.21970000  0.47120000  1
  O  O131  1  0.85430000  0.08740000  0.40970000  1
  O  O132  1  0.66570000  0.42360000  0.93320000  1
  O  O133  1  0.76840000  0.27330000  0.96590000  1
  O  O134  1  0.26250000  0.28030000  0.97120000  1
  O  O135  1  0.35430000  0.41260000  0.90970000  1
  O  O136  1  0.83430000  0.92360000  0.56680000  1
  O  O137  1  0.73160000  0.77330000  0.53410000  1
  O  O138  1  0.23750000  0.78030000  0.52880000  1
  O  O139  1  0.14570000  0.91260000  0.59030000  1
