# generated using pymatgen
data_Al3H36C60O13
_symmetry_space_group_name_H-M   'P 1'
_cell_length_a   24.20642106
_cell_length_b   30.52485075
_cell_length_c   30.52452365
_cell_angle_alpha   119.99964799
_cell_angle_beta   90.00000001
_cell_angle_gamma   89.99999437
_symmetry_Int_Tables_number   1
_chemical_formula_structural   Al3H36C60O13
_chemical_formula_sum   'Al6 H72 C120 O26'
_cell_volume   19532.83133476
_cell_formula_units_Z   2
loop_
 _symmetry_equiv_pos_site_id
 _symmetry_equiv_pos_as_xyz
  1  'x, y, z'
loop_
 _atom_site_type_symbol
 _atom_site_label
 _atom_site_symmetry_multiplicity
 _atom_site_fract_x
 _atom_site_fract_y
 _atom_site_fract_z
 _atom_site_occupancy
  Al  Al0  1  0.24999586  0.39901406  0.69950998  1.0
  Al  Al1  1  0.24999587  0.30059220  0.69951079  1.0
  Al  Al2  1  0.24999587  0.30059373  0.60108577  1.0
  Al  Al3  1  0.74999587  0.60111842  0.30055626  1.0
  Al  Al4  1  0.74999587  0.69954028  0.30055545  1.0
  Al  Al5  1  0.74999587  0.69953875  0.39898047  1.0
  H  H6  1  0.19937901  0.37738247  0.52472143  1.0
  H  H7  1  0.13337426  0.41472439  0.48070189  1.0
  H  H8  1  0.01168447  0.47258826  0.61597697  1.0
  H  H9  1  0.07798141  0.43563317  0.66021868  1.0
  H  H10  1  0.08781858  0.44419466  0.45043236  1.0
  H  H11  1  0.02518952  0.48607765  0.40863943  1.0
  H  H12  1  0.90163934  0.54209618  0.54235518  1.0
  H  H13  1  0.96428366  0.50017211  0.58411598  1.0
  H  H14  1  0.98034897  0.51626775  0.37869772  1.0
  H  H15  1  0.92109521  0.56226983  0.33916775  1.0
  H  H16  1  0.79936046  0.62194855  0.47448928  1.0
  H  H17  1  0.85832837  0.57543822  0.51370874  1.0
  H  H18  1  0.67283564  0.65076315  0.48666574  1.0
  H  H19  1  0.60569706  0.61212714  0.52867815  1.0
  H  H20  1  0.53660403  0.49770724  0.36992333  1.0
  H  H21  1  0.60414059  0.53606319  0.32786207  1.0
  H  H22  1  0.56001520  0.58245723  0.55866868  1.0
  H  H23  1  0.49739790  0.54060935  0.60050411  1.0
  H  H24  1  0.42583781  0.42751021  0.44240252  1.0
  H  H25  1  0.48845407  0.46940330  0.40059311  1.0
  H  H26  1  0.45259520  0.51048860  0.63053896  1.0
  H  H27  1  0.39443673  0.46575978  0.67203100  1.0
  H  H28  1  0.32562142  0.34985448  0.51376212  1.0
  H  H29  1  0.38334418  0.39498421  0.47237901  1.0
  H  H30  1  0.43120111  0.35049752  0.77054338  1.0
  H  H31  1  0.49572389  0.39593364  0.85283675  1.0
  H  H32  1  0.35569850  0.51095329  0.94000980  1.0
  H  H33  1  0.29098215  0.46520071  0.85781910  1.0
  H  H34  1  0.54095674  0.42651138  0.91277955  1.0
  H  H35  1  0.60366227  0.46823044  0.99640738  1.0
  H  H36  1  0.46518022  0.58511264  0.08349378  1.0
  H  H37  1  0.40250259  0.54338443  0.99982986  1.0
  H  H38  1  0.64862613  0.49805371  0.05646165  1.0
  H  H39  1  0.70937632  0.53615183  0.14105270  1.0
  H  H40  1  0.56970748  0.65082706  0.22979824  1.0
  H  H41  1  0.50922783  0.61305407  0.14501906  1.0
  H  H42  1  0.06444227  0.40903156  0.76780284  1.0
  H  H43  1  0.00055893  0.44587648  0.85049845  1.0
  H  H44  1  0.14956411  0.44024688  0.94332025  1.0
  H  H45  1  0.21358599  0.40382481  0.86069267  1.0
  H  H46  1  0.95541566  0.47525044  0.91049761  1.0
  H  H47  1  0.89269631  0.51715521  0.99411675  1.0
  H  H48  1  0.04044466  0.50953869  0.08703212  1.0
  H  H49  1  0.10313777  0.46760259  0.00337794  1.0
  H  H50  1  0.84770245  0.54738169  0.05415214  1.0
  H  H51  1  0.78632688  0.59388204  0.13834981  1.0
  H  H52  1  0.93480641  0.59018004  0.23263771  1.0
  H  H53  1  0.99597483  0.54315298  0.14829180  1.0
  H  H54  1  0.78217903  0.86429214  0.43715571  1.0
  H  H55  1  0.84546554  0.94736209  0.48331098  1.0
  H  H56  1  0.00289056  0.84748128  0.42529386  1.0
  H  H57  1  0.93955459  0.76442336  0.37873828  1.0
  H  H58  1  0.89067524  0.00731881  0.51390213  1.0
  H  H59  1  0.95334866  0.09096593  0.55563979  1.0
  H  H60  1  0.11131000  0.99163175  0.50007106  1.0
  H  H61  1  0.04859990  0.90798916  0.45836183  1.0
  H  H62  1  0.99829972  0.15102760  0.58547044  1.0
  H  H63  1  0.06019601  0.23489698  0.62290169  1.0
  H  H64  1  0.21840929  0.13631713  0.56428896  1.0
  H  H65  1  0.15648902  0.05244485  0.52735420  1.0
  H  H66  1  0.40554978  0.21342314  0.54396571  1.0
  H  H67  1  0.47196317  0.13231949  0.50631612  1.0
  H  H68  1  0.38402324  0.07790040  0.60578818  1.0
  H  H69  1  0.31725663  0.15880100  0.64309676  1.0
  H  H70  1  0.51747298  0.07255147  0.47687954  1.0
  H  H71  1  0.58013264  0.98889569  0.43497254  1.0
  H  H72  1  0.49454653  0.93507289  0.53591963  1.0
  H  H73  1  0.43191467  0.01876470  0.57783538  1.0
  H  H74  1  0.62500185  0.92878254  0.40476019  1.0
  H  H75  1  0.68389747  0.84302621  0.35902582  1.0
  H  H76  1  0.59582253  0.78672556  0.45681809  1.0
  H  H77  1  0.53737100  0.87277914  0.50294194  1.0
  C  C78  1  0.17988224  0.38014651  0.61995532  1.0
  C  C79  1  0.17988224  0.38014433  0.76018901  1.0
  C  C80  1  0.17988225  0.23990917  0.61995568  1.0
  C  C81  1  0.32011776  0.38014650  0.61995531  1.0
  C  C82  1  0.32011776  0.38014432  0.76018901  1.0
  C  C83  1  0.32011776  0.23990916  0.61995567  1.0
  C  C84  1  0.67988224  0.61998598  0.38011093  1.0
  C  C85  1  0.67988224  0.61998816  0.23987724  1.0
  C  C86  1  0.67988224  0.76022332  0.38011057  1.0
  C  C87  1  0.82011776  0.61998597  0.38011092  1.0
  C  C88  1  0.82011776  0.61998815  0.23987723  1.0
  C  C89  1  0.82011775  0.76022331  0.38011057  1.0
  C  C90  1  0.14386687  0.40415640  0.59594493  1.0
  C  C91  1  0.15952618  0.39773198  0.54418180  1.0
  C  C92  1  0.12160132  0.41913681  0.51886845  1.0
  C  C93  1  0.06794618  0.44687492  0.54530801  1.0
  C  C94  1  0.05168831  0.45243966  0.59662297  1.0
  C  C95  1  0.08976540  0.43121642  0.62204094  1.0
  C  C96  1  0.03098393  0.46955203  0.52060954  1.0
  C  C97  1  0.04824310  0.46509189  0.46999227  1.0
  C  C98  1  0.01225606  0.48906368  0.44595967  1.0
  C  C99  1  0.95904486  0.51755541  0.47263695  1.0
  C  C100  1  0.94126492  0.52127942  0.52282606  1.0
  C  C101  1  0.97724935  0.49723847  0.54682791  1.0
  C  C102  1  0.92404717  0.54287103  0.44938342  1.0
  C  C103  1  0.94187148  0.53876582  0.39906094  1.0
  C  C104  1  0.90784221  0.56521107  0.37634964  1.0
  C  C105  1  0.85613313  0.59597608  0.40412131  1.0
  C  C106  1  0.83786265  0.59951099  0.45413448  1.0
  C  C107  1  0.87174006  0.57279757  0.47669121  1.0
  C  C108  1  0.64386686  0.59597608  0.40412132  1.0
  C  C109  1  0.64395469  0.61813642  0.46182798  1.0
  C  C110  1  0.60536429  0.59598306  0.48597426  1.0
  C  C111  1  0.56660132  0.55172461  0.45237953  1.0
  C  C112  1  0.56568863  0.53019047  0.39474523  1.0
  C  C113  1  0.60448008  0.55221664  0.37057944  1.0
  C  C114  1  0.52929113  0.52867843  0.47649011  1.0
  C  C115  1  0.53151355  0.54944606  0.53395878  1.0
  C  C116  1  0.49551251  0.52548040  0.55798869  1.0
  C  C117  1  0.45735626  0.48068686  0.52447715  1.0
  C  C118  1  0.45440820  0.46046372  0.46711616  1.0
  C  C119  1  0.49038701  0.48449168  0.44309780  1.0
  C  C120  1  0.42271557  0.45573906  0.54832301  1.0
  C  C121  1  0.42560580  0.47631406  0.60572375  1.0
  C  C122  1  0.39220759  0.45060743  0.62957052  1.0
  C  C123  1  0.35613314  0.40415640  0.59594492  1.0
  C  C124  1  0.35264647  0.38398546  0.53859275  1.0
  C  C125  1  0.38581624  0.40990109  0.51479320  1.0
  C  C126  1  0.35613402  0.40415525  0.80821092  1.0
  C  C127  1  0.41510027  0.38454903  0.80661998  1.0
  C  C128  1  0.45218665  0.41066384  0.85386541  1.0
  C  C129  1  0.43030260  0.45646696  0.90266812  1.0
  C  C130  1  0.37170953  0.47673690  0.90398927  1.0
  C  C131  1  0.33453098  0.45046002  0.85678303  1.0
  C  C132  1  0.46688947  0.48152402  0.95027975  1.0
  C  C133  1  0.52484477  0.46020873  0.94913692  1.0
  C  C134  1  0.56087596  0.48419869  0.99711354  1.0
  C  C135  1  0.53885348  0.52947192  0.04624003  1.0
  C  C136  1  0.48127083  0.55135701  0.04716802  1.0
  C  C137  1  0.44526065  0.52738021  0.99914143  1.0
  C  C138  1  0.57420509  0.55238656  0.09458663  1.0
  C  C139  1  0.63185727  0.53052591  0.09333917  1.0
  C  C140  1  0.66676296  0.55239862  0.14194460  1.0
  C  C141  1  0.64386598  0.59597723  0.19185532  1.0
  C  C142  1  0.58647852  0.61832072  0.19295589  1.0
  C  C143  1  0.55170466  0.59662174  0.14424946  1.0
  C  C144  1  0.14386598  0.40415525  0.80821091  1.0
  C  C145  1  0.08257524  0.41578020  0.80515775  1.0
  C  C146  1  0.04586051  0.43690153  0.85263697  1.0
  C  C147  1  0.07045518  0.44628575  0.90314480  1.0
  C  C148  1  0.13149215  0.43372024  0.90600327  1.0
  C  C149  1  0.16827194  0.41280095  0.85854621  1.0
  C  C150  1  0.03405524  0.46883130  0.95087401  1.0
  C  C151  1  0.97348671  0.48262639  0.94808733  1.0
  C  C152  1  0.93745608  0.50660874  0.99606431  1.0
  C  C153  1  0.96208652  0.51684232  0.04683135  1.0
  C  C154  1  0.02238396  0.50225254  0.04946707  1.0
  C  C155  1  0.05839948  0.47820396  0.00144383  1.0
  C  C156  1  0.92654673  0.54228543  0.09505957  1.0
  C  C157  1  0.86620847  0.55651398  0.09212243  1.0
  C  C158  1  0.83094080  0.58325005  0.14050017  1.0
  C  C159  1  0.85613402  0.59597723  0.19185533  1.0
  C  C160  1  0.91629056  0.58111635  0.19469780  1.0
  C  C161  1  0.95146022  0.55409948  0.14624033  1.0
  C  C162  1  0.85613459  0.80824575  0.40412201  1.0
  C  C163  1  0.82911477  0.86072754  0.43453674  1.0
  C  C164  1  0.86545269  0.90844316  0.46108694  1.0
  C  C165  1  0.92883271  0.90362668  0.45728911  1.0
  C  C166  1  0.95592790  0.85106239  0.42771135  1.0
  C  C167  1  0.91955377  0.80335078  0.40096653  1.0
  C  C168  1  0.96498237  0.95151275  0.48260048  1.0
  C  C169  1  0.93761434  0.00402586  0.51092057  1.0
  C  C170  1  0.97358460  0.05204028  0.53494593  1.0
  C  C171  1  0.03693623  0.04747838  0.53055418  1.0
  C  C172  1  0.06436666  0.99494554  0.50298438  1.0
  C  C173  1  0.02836407  0.94691469  0.47900321  1.0
  C  C174  1  0.07275850  0.09552848  0.55319496  1.0
  C  C175  1  0.04510636  0.14792500  0.58095862  1.0
  C  C176  1  0.08066202  0.19612115  0.60245314  1.0
  C  C177  1  0.14386541  0.19188674  0.59594424  1.0
  C  C178  1  0.17160762  0.13945316  0.56876503  1.0
  C  C179  1  0.13604214  0.09124508  0.54752664  1.0
  C  C180  1  0.35613458  0.19188676  0.59594425  1.0
  C  C181  1  0.40088899  0.18454080  0.55702535  1.0
  C  C182  1  0.43907183  0.13798533  0.53542632  1.0
  C  C183  1  0.43254324  0.09883915  0.55285835  1.0
  C  C184  1  0.38850966  0.10667351  0.59254518  1.0
  C  C185  1  0.35015481  0.15313957  0.61397746  1.0
  C  C186  1  0.46967659  0.05157166  0.53005225  1.0
  C  C187  1  0.51257477  0.04324607  0.48936147  1.0
  C  C188  1  0.54860265  0.99526788  0.46535843  1.0
  C  C189  1  0.54162490  0.95560252  0.48204075  1.0
  C  C190  1  0.49939045  0.96432598  0.52336037  1.0
  C  C191  1  0.46339765  0.01236300  0.54740820  1.0
  C  C192  1  0.57642855  0.90691187  0.45687015  1.0
  C  C193  1  0.61879829  0.89854923  0.41579690  1.0
  C  C194  1  0.65262944  0.84926863  0.38949972  1.0
  C  C195  1  0.64386542  0.80824572  0.40412199  1.0
  C  C196  1  0.60200469  0.81690887  0.44571840  1.0
  C  C197  1  0.56839923  0.86634949  0.47222833  1.0
  O  O198  1  0.19820795  0.40846414  0.66450970  1.0
  O  O199  1  0.19820796  0.33559033  0.74395254  1.0
  O  O200  1  0.19820796  0.25615311  0.59164156  1.0
  O  O201  1  0.19820796  0.33559269  0.59163684  1.0
  O  O202  1  0.19820796  0.25615198  0.66451355  1.0
  O  O203  1  0.19820795  0.40846290  0.74395339  1.0
  O  O204  1  0.30179204  0.40846413  0.66450969  1.0
  O  O205  1  0.30179204  0.33559032  0.74395253  1.0
  O  O206  1  0.30179205  0.25615311  0.59164156  1.0
  O  O207  1  0.30179204  0.33559269  0.59163684  1.0
  O  O208  1  0.30179205  0.25615197  0.66451354  1.0
  O  O209  1  0.30179204  0.40846290  0.74395340  1.0
  O  O210  1  0.24999587  0.33333333  0.66666667  1.0
  O  O211  1  0.69820796  0.59166835  0.33555655  1.0
  O  O212  1  0.69820796  0.66454216  0.25611371  1.0
  O  O213  1  0.69820795  0.74397938  0.40842469  1.0
  O  O214  1  0.69820796  0.66453979  0.40842940  1.0
  O  O215  1  0.69820795  0.74398051  0.33555270  1.0
  O  O216  1  0.69820796  0.59166959  0.25611285  1.0
  O  O217  1  0.80179205  0.59166834  0.33555654  1.0
  O  O218  1  0.80179204  0.66454216  0.25611371  1.0
  O  O219  1  0.80179204  0.74397937  0.40842468  1.0
  O  O220  1  0.80179204  0.66453979  0.40842940  1.0
  O  O221  1  0.80179204  0.74398050  0.33555269  1.0
  O  O222  1  0.80179205  0.59166958  0.25611285  1.0
  O  O223  1  0.74999587  0.66666667  0.33333333  1.0
