# generated using pymatgen
data_TbH2C5O6
_symmetry_space_group_name_H-M   'P 1'
_cell_length_a   9.12650000
_cell_length_b   9.12650000
_cell_length_c   14.40018644
_cell_angle_alpha   100.23492322
_cell_angle_beta   100.23492322
_cell_angle_gamma   116.05800000
_symmetry_Int_Tables_number   1
_chemical_formula_structural   TbH2C5O6
_chemical_formula_sum   'Tb4 H8 C20 O24'
_cell_volume   1015.03012218
_cell_formula_units_Z   4
loop_
 _symmetry_equiv_pos_site_id
 _symmetry_equiv_pos_as_xyz
  1  'x, y, z'
loop_
 _atom_site_type_symbol
 _atom_site_label
 _atom_site_symmetry_multiplicity
 _atom_site_fract_x
 _atom_site_fract_y
 _atom_site_fract_z
 _atom_site_occupancy
  Tb  Tb0  1  0.00930000  0.75930000  0.01860000  1
  Tb  Tb1  1  0.24070000  0.99070000  0.48140000  1
  Tb  Tb2  1  0.99070000  0.24070000  0.98140000  1
  Tb  Tb3  1  0.75930000  0.00930000  0.51860000  1
  H  H4  1  0.38900000  0.81460000  0.93200000  1
  H  H5  1  0.54300000  0.61740000  0.93200000  1
  H  H6  1  0.18540000  0.61100000  0.56800000  1
  H  H7  1  0.38260000  0.45700000  0.56800000  1
  H  H8  1  0.61100000  0.18540000  0.06800000  1
  H  H9  1  0.45700000  0.38260000  0.06800000  1
  H  H10  1  0.81460000  0.38900000  0.43200000  1
  H  H11  1  0.61740000  0.54300000  0.43200000  1
  C  C12  1  0.24396000  0.56756000  0.94192000  1
  C  C13  1  0.39654000  0.71734000  0.93588000  1
  C  C14  1  0.69796000  0.87436000  0.94192000  1
  C  C15  1  0.53934000  0.71854000  0.93588000  1
  C  C16  1  0.43244000  0.75604000  0.55808000  1
  C  C17  1  0.28266000  0.60346000  0.56412000  1
  C  C18  1  0.12564000  0.30204000  0.55808000  1
  C  C19  1  0.28146000  0.46066000  0.56412000  1
  C  C20  1  0.75604000  0.43244000  0.05808000  1
  C  C21  1  0.60346000  0.28266000  0.06412000  1
  C  C22  1  0.30204000  0.12564000  0.05808000  1
  C  C23  1  0.46066000  0.28146000  0.06412000  1
  C  C24  1  0.56756000  0.24396000  0.44192000  1
  C  C25  1  0.71734000  0.39654000  0.43588000  1
  C  C26  1  0.87436000  0.69796000  0.44192000  1
  C  C27  1  0.71854000  0.53934000  0.43588000  1
  C  C28  1  0.07510000  0.92490000  0.25000000  1
  C  C29  1  0.17490000  0.82510000  0.25000000  1
  C  C30  1  0.92490000  0.07510000  0.75000000  1
  C  C31  1  0.82510000  0.17490000  0.75000000  1
  O  O32  1  0.13397000  0.59739000  0.96656000  1
  O  O33  1  0.22750000  0.41980000  0.92410000  1
  O  O34  1  0.00771000  0.92987000  0.16818000  1
  O  O35  1  0.83259000  0.86917000  0.96656000  1
  O  O36  1  0.69660000  0.00430000  0.92410000  1
  O  O37  1  0.16047000  0.73831000  0.16818000  1
  O  O38  1  0.40261000  0.86603000  0.53344000  1
  O  O39  1  0.58020000  0.77250000  0.57590000  1
  O  O40  1  0.07013000  0.99229000  0.33182000  1
  O  O41  1  0.13083000  0.16741000  0.53344000  1
  O  O42  1  0.99570000  0.30340000  0.57590000  1
  O  O43  1  0.26169000  0.83953000  0.33182000  1
  O  O44  1  0.86603000  0.40261000  0.03344000  1
  O  O45  1  0.77250000  0.58020000  0.07590000  1
  O  O46  1  0.99229000  0.07013000  0.83182000  1
  O  O47  1  0.16741000  0.13083000  0.03344000  1
  O  O48  1  0.30340000  0.99570000  0.07590000  1
  O  O49  1  0.83953000  0.26169000  0.83182000  1
  O  O50  1  0.59739000  0.13397000  0.46656000  1
  O  O51  1  0.41980000  0.22750000  0.42410000  1
  O  O52  1  0.92987000  0.00771000  0.66818000  1
  O  O53  1  0.86917000  0.83259000  0.46656000  1
  O  O54  1  0.00430000  0.69660000  0.42410000  1
  O  O55  1  0.73831000  0.16047000  0.66818000  1
