# generated using pymatgen
data_CdH2C2N3Cl
_symmetry_space_group_name_H-M   'P 1'
_cell_length_a   8.44130000
_cell_length_b   8.44130000
_cell_length_c   16.68800000
_cell_angle_alpha   90.00000000
_cell_angle_beta   90.00000000
_cell_angle_gamma   90.78230000
_symmetry_Int_Tables_number   1
_chemical_formula_structural   CdH2C2N3Cl
_chemical_formula_sum   'Cd6 H12 C12 N18 Cl6'
_cell_volume   1189.00170875
_cell_formula_units_Z   6
loop_
 _symmetry_equiv_pos_site_id
 _symmetry_equiv_pos_as_xyz
  1  'x, y, z'
loop_
 _atom_site_type_symbol
 _atom_site_label
 _atom_site_symmetry_multiplicity
 _atom_site_fract_x
 _atom_site_fract_y
 _atom_site_fract_z
 _atom_site_occupancy
  Cd  Cd0  1  0.06145000  0.93855000  0.67939000  1
  Cd  Cd1  1  0.69281000  0.30719000  0.82020000  1
  Cd  Cd2  1  0.37937000  0.62063000  0.71542000  1
  Cd  Cd3  1  0.93855000  0.06145000  0.17939000  1
  Cd  Cd4  1  0.30719000  0.69281000  0.32020000  1
  Cd  Cd5  1  0.62063000  0.37937000  0.21542000  1
  H  H6  1  0.77600000  0.66980000  0.74190000  1
  H  H7  1  0.09380000  0.36280000  0.80010000  1
  H  H8  1  0.22400000  0.33020000  0.24190000  1
  H  H9  1  0.90620000  0.63720000  0.30010000  1
  H  H10  1  0.66980000  0.77600000  0.24190000  1
  H  H11  1  0.36280000  0.09380000  0.30010000  1
  H  H12  1  0.33020000  0.22400000  0.74190000  1
  H  H13  1  0.63720000  0.90620000  0.80010000  1
  H  H14  1  0.42420000  0.57580000  0.51090000  1
  H  H15  1  0.10510000  0.89490000  0.47090000  1
  H  H16  1  0.57580000  0.42420000  0.01090000  1
  H  H17  1  0.89490000  0.10510000  0.97090000  1
  C  C18  1  0.87310000  0.62150000  0.75000000  1
  C  C19  1  0.04600000  0.45460000  0.78190000  1
  C  C20  1  0.12690000  0.37850000  0.25000000  1
  C  C21  1  0.95400000  0.54540000  0.28190000  1
  C  C22  1  0.62150000  0.87310000  0.25000000  1
  C  C23  1  0.45460000  0.04600000  0.28190000  1
  C  C24  1  0.37850000  0.12690000  0.75000000  1
  C  C25  1  0.54540000  0.95400000  0.78190000  1
  C  C26  1  0.34740000  0.65260000  0.51750000  1
  C  C27  1  0.17440000  0.82560000  0.49560000  1
  C  C28  1  0.65260000  0.34740000  0.01750000  1
  C  C29  1  0.82560000  0.17440000  0.99560000  1
  N  N30  1  0.01140000  0.68820000  0.73080000  1
  N  N31  1  0.12600000  0.57860000  0.75270000  1
  N  N32  1  0.88840000  0.47640000  0.78230000  1
  N  N33  1  0.98860000  0.31180000  0.23080000  1
  N  N34  1  0.87400000  0.42140000  0.25270000  1
  N  N35  1  0.11160000  0.52360000  0.28230000  1
  N  N36  1  0.68820000  0.01140000  0.23080000  1
  N  N37  1  0.57860000  0.12600000  0.25270000  1
  N  N38  1  0.47640000  0.88840000  0.28230000  1
  N  N39  1  0.31180000  0.98860000  0.73080000  1
  N  N40  1  0.42140000  0.87400000  0.75270000  1
  N  N41  1  0.52360000  0.11160000  0.78230000  1
  N  N42  1  0.29820000  0.70180000  0.58670000  1
  N  N43  1  0.18720000  0.81280000  0.57160000  1
  N  N44  1  0.27200000  0.72800000  0.45450000  1
  N  N45  1  0.70180000  0.29820000  0.08670000  1
  N  N46  1  0.81280000  0.18720000  0.07160000  1
  N  N47  1  0.72800000  0.27200000  0.95450000  1
  Cl  Cl48  1  0.92390000  0.07610000  0.79940000  1
  Cl  Cl49  1  0.56880000  0.43120000  0.65630000  1
  Cl  Cl50  1  0.48000000  0.52000000  0.85720000  1
  Cl  Cl51  1  0.07610000  0.92390000  0.29940000  1
  Cl  Cl52  1  0.43120000  0.56880000  0.15630000  1
  Cl  Cl53  1  0.52000000  0.48000000  0.35720000  1
