# generated using pymatgen
data_Zn4H36C60O13
_symmetry_space_group_name_H-M   'P 1'
_cell_length_a   26.75032528
_cell_length_b   28.62129986
_cell_length_c   28.62076560
_cell_angle_alpha   120.00114432
_cell_angle_beta   90.00002221
_cell_angle_gamma   89.99969142
_symmetry_Int_Tables_number   1
_chemical_formula_structural   Zn4H36C60O13
_chemical_formula_sum   'Zn8 H72 C120 O26'
_cell_volume   18976.90098672
_cell_formula_units_Z   2
loop_
 _symmetry_equiv_pos_site_id
 _symmetry_equiv_pos_as_xyz
  1  'x, y, z'
loop_
 _atom_site_type_symbol
 _atom_site_label
 _atom_site_symmetry_multiplicity
 _atom_site_fract_x
 _atom_site_fract_y
 _atom_site_fract_z
 _atom_site_occupancy
  Zn  Zn0  1  0.27419879  0.33340107  0.73067199  1.0
  Zn  Zn1  1  0.27419897  0.26942837  0.60276170  1.0
  Zn  Zn2  1  0.17740367  0.33336678  0.66670011  1.0
  Zn  Zn3  1  0.27419857  0.39733672  0.66666667  1.0
  Zn  Zn4  1  0.72579846  0.66673516  0.39734425  1.0
  Zn  Zn5  1  0.72579824  0.73070445  0.33337256  1.0
  Zn  Zn6  1  0.82259355  0.66666667  0.33333333  1.0
  Zn  Zn7  1  0.72579864  0.60273320  0.26939987  1.0
  H  H8  1  0.80669752  0.66997339  0.53012084  1.0
  H  H9  1  0.86726876  0.62277221  0.56897166  1.0
  H  H10  1  0.97351577  0.56999365  0.42273883  1.0
  H  H11  1  0.91314534  0.61764727  0.38414418  1.0
  H  H12  1  0.91221329  0.59181250  0.59872135  1.0
  H  H13  1  0.97515947  0.54980854  0.64091929  1.0
  H  H14  1  0.08064933  0.49438991  0.49370343  1.0
  H  H15  1  0.01766087  0.53638315  0.45151061  1.0
  H  H16  1  0.02039906  0.51981926  0.67131752  1.0
  H  H17  1  0.08536297  0.48283637  0.71647994  1.0
  H  H18  1  0.19317084  0.43081268  0.57167285  1.0
  H  H19  1  0.12789865  0.46728005  0.52624282  1.0
  H  H20  1  0.35425874  0.27766415  0.45883834  1.0
  H  H21  1  0.41299630  0.32230835  0.41583531  1.0
  H  H22  1  0.42337865  0.47897744  0.58254343  1.0
  H  H23  1  0.36499122  0.43411761  0.62565704  1.0
  H  H24  1  0.45764999  0.35297662  0.38554142  1.0
  H  H25  1  0.52064807  0.39501007  0.34341858  1.0
  H  H26  1  0.52955294  0.55297216  0.50913582  1.0
  H  H27  1  0.46652152  0.51091557  0.55122745  1.0
  H  H28  1  0.56598885  0.42508817  0.31319756  1.0
  H  H29  1  0.63275850  0.46454448  0.27208036  1.0
  H  H30  1  0.64516306  0.62118154  0.43848707  1.0
  H  H31  1  0.57794171  0.58191081  0.47941711  1.0
  H  H32  1  0.34475981  0.54349642  0.82708894  1.0
  H  H33  1  0.40363668  0.58575097  0.91461739  1.0
  H  H34  1  0.43306700  0.41425631  0.88800756  1.0
  H  H35  1  0.37453037  0.37195641  0.80016149  1.0
  H  H36  1  0.44831841  0.61594351  0.97555682  1.0
  H  H37  1  0.51131093  0.65808286  0.05972024  1.0
  H  H38  1  0.53930130  0.48723483  0.03536171  1.0
  H  H39  1  0.47627246  0.44512363  0.95120895  1.0
  H  H40  1  0.55664181  0.68833876  0.12002960  1.0
  H  H41  1  0.62327303  0.73018953  0.20072569  1.0
  H  H42  1  0.65469459  0.55919652  0.17441218  1.0
  H  H43  1  0.58761607  0.51745541  0.09408501  1.0
  H  H44  1  0.90253611  0.62401481  0.22326386  1.0
  H  H45  1  0.96841058  0.57992660  0.14182429  1.0
  H  H46  1  0.88525558  0.41597939  0.07045605  1.0
  H  H47  1  0.81909395  0.46023366  0.15166728  1.0
  H  H48  1  0.01397263  0.54932952  0.08165064  1.0
  H  H49  1  0.07685388  0.50728771  0.99739004  1.0
  H  H50  1  0.99569754  0.34231796  0.92676277  1.0
  H  H51  1  0.93283916  0.38438727  0.01106420  1.0
  H  H52  1  0.12190421  0.47718754  0.93683629  1.0
  H  H53  1  0.18173508  0.43719211  0.85022224  1.0
  H  H54  1  0.09865071  0.27312511  0.77688637  1.0
  H  H55  1  0.03918150  0.31299823  0.86383545  1.0
  H  H56  1  0.83207390  0.83815634  0.29449105  1.0
  H  H57  1  0.89127796  0.92539840  0.34052875  1.0
  H  H58  1  0.94621144  0.87660718  0.46408763  1.0
  H  H59  1  0.88732197  0.78906981  0.41770785  1.0
  H  H60  1  0.93601551  0.98628798  0.37136571  1.0
  H  H61  1  0.99899708  0.07045912  0.41337635  1.0
  H  H62  1  0.05260711  0.02381785  0.53892957  1.0
  H  H63  1  0.98958599  0.93966018  0.49690969  1.0
  H  H64  1  0.04430792  0.13078462  0.44339899  1.0
  H  H65  1  0.11061503  0.21176084  0.48149810  1.0
  H  H66  1  0.16746019  0.16333512  0.60463818  1.0
  H  H67  1  0.10072681  0.08270954  0.56689188  1.0
  H  H68  1  0.57315837  0.75569952  0.44416118  1.0
  H  H69  1  0.51140291  0.84072231  0.49147736  1.0
  H  H70  1  0.64487756  0.95586863  0.52067754  1.0
  H  H71  1  0.70656489  0.87076499  0.47289583  1.0
  H  H72  1  0.46641504  0.90139466  0.52244019  1.0
  H  H73  1  0.40344722  0.98557858  0.56444466  1.0
  H  H74  1  0.53677915  0.10159909  0.59637346  1.0
  H  H75  1  0.59973621  0.01738486  0.55438494  1.0
  H  H76  1  0.35820605  0.04596530  0.59443292  1.0
  H  H77  1  0.29435033  0.12907539  0.63130505  1.0
  H  H78  1  0.42666281  0.24523940  0.65971106  1.0
  H  H79  1  0.49056929  0.16215320  0.62337981  1.0
  C  C80  1  0.32732764  0.23115818  0.66666666  1.0
  C  C81  1  0.17267301  0.23118950  0.56452283  1.0
  C  C82  1  0.17267272  0.33340203  0.76891154  1.0
  C  C83  1  0.17267236  0.43557515  0.66666667  1.0
  C  C84  1  0.32732728  0.33339797  0.56448846  1.0
  C  C85  1  0.32732699  0.43557856  0.76891189  1.0
  C  C86  1  0.67266961  0.76891762  0.43558429  1.0
  C  C87  1  0.82732419  0.76894265  0.33337265  1.0
  C  C88  1  0.82732455  0.66673556  0.43558355  1.0
  C  C89  1  0.82732484  0.56449344  0.23116011  1.0
  C  C90  1  0.67266989  0.66666667  0.23109515  1.0
  C  C91  1  0.67267025  0.56452527  0.33337175  1.0
  C  C92  1  0.85565659  0.64777414  0.45454419  1.0
  C  C93  1  0.84223348  0.64881823  0.50735016  1.0
  C  C94  1  0.87699272  0.62167172  0.52965096  1.0
  C  C95  1  0.92512947  0.59338033  0.49904370  1.0
  C  C96  1  0.93808428  0.59138154  0.44565087  1.0
  C  C97  1  0.90341254  0.61875316  0.42347785  1.0
  C  C98  1  0.96054636  0.56770245  0.52229968  1.0
  C  C99  1  0.94809104  0.57114480  0.57644990  1.0
  C  C100  1  0.98417985  0.54696499  0.60063684  1.0
  C  C101  1  0.03276065  0.51941475  0.57065169  1.0
  C  C102  1  0.04481789  0.51514000  0.51603750  1.0
  C  C103  1  0.00867103  0.53928219  0.49182193  1.0
  C  C104  1  0.06955876  0.49678652  0.59570822  1.0
  C  C105  1  0.05715573  0.50090975  0.65016037  1.0
  C  C106  1  0.09448655  0.47968030  0.67612776  1.0
  C  C107  1  0.14434032  0.45457053  0.64773999  1.0
  C  C108  1  0.15645454  0.44977059  0.59288455  1.0
  C  C109  1  0.11896171  0.47072883  0.56676647  1.0
  C  C110  1  0.35565868  0.35235930  0.54552800  1.0
  C  C111  1  0.36905296  0.32043071  0.48517237  1.0
  C  C112  1  0.40275308  0.34607773  0.46045067  1.0
  C  C113  1  0.42295975  0.40372050  0.49610647  1.0
  C  C114  1  0.40876984  0.43609652  0.55625685  1.0
  C  C115  1  0.37523411  0.41033434  0.58102761  1.0
  C  C116  1  0.45785725  0.42861732  0.47161770  1.0
  C  C117  1  0.47302362  0.39549159  0.41181886  1.0
  C  C118  1  0.50912366  0.41964275  0.38761330  1.0
  C  C119  1  0.53008833  0.47691565  0.42329146  1.0
  C  C120  1  0.51425815  0.51041703  0.48286629  1.0
  C  C121  1  0.47809246  0.48626124  0.50705162  1.0
  C  C122  1  0.56740159  0.50034415  0.39948375  1.0
  C  C123  1  0.58285622  0.46677479  0.33982556  1.0
  C  C124  1  0.62123521  0.48942995  0.31619626  1.0
  C  C125  1  0.64433885  0.54556394  0.35233221  1.0
  C  C126  1  0.62836065  0.57947177  0.41185117  1.0
  C  C127  1  0.58973966  0.55691866  0.43539238  1.0
  C  C128  1  0.35565694  0.45457041  0.80683214  1.0
  C  C129  1  0.36363242  0.51600148  0.83997398  1.0
  C  C130  1  0.39741188  0.54028756  0.89027505  1.0
  C  C131  1  0.42312279  0.50310477  0.90747429  1.0
  C  C132  1  0.41437394  0.44173772  0.87496580  1.0
  C  C133  1  0.38075317  0.41743440  0.82450544  1.0
  C  C134  1  0.45805708  0.52737373  0.95682923  1.0
  C  C135  1  0.46774770  0.58858850  0.98826662  1.0
  C  C136  1  0.50384498  0.61279309  0.03662706  1.0
  C  C137  1  0.53028682  0.57570670  0.05345759  1.0
  C  C138  1  0.51994822  0.51459478  0.02260611  1.0
  C  C139  1  0.48378430  0.49040272  0.97426214  1.0
  C  C140  1  0.56756543  0.59973784  0.10072522  1.0
  C  C141  1  0.57752190  0.66089516  0.13159781  1.0
  C  C142  1  0.61582004  0.68494882  0.17795385  1.0
  C  C143  1  0.64433995  0.64777245  0.19324060  1.0
  C  C144  1  0.63387715  0.58665677  0.16283073  1.0
  C  C145  1  0.59534020  0.56265014  0.11666207  1.0
  C  C146  1  0.85565556  0.54556294  0.19323940  1.0
  C  C147  1  0.89879491  0.57980617  0.19069885  1.0
  C  C148  1  0.93666164  0.55448372  0.14395426  1.0
  C  C149  1  0.93141768  0.49486084  0.09981616  1.0
  C  C150  1  0.88885638  0.46027706  0.10289937  1.0
  C  C151  1  0.85084944  0.48569096  0.14954314  1.0
  C  C152  1  0.96844854  0.47013042  0.05228545  1.0
  C  C153  1  0.01007365  0.50531510  0.04863916  1.0
  C  C154  1  0.04621753  0.48116777  0.00031907  1.0
  C  C155  1  0.04064043  0.42182987  0.95562372  1.0
  C  C156  1  0.99955493  0.38636316  0.95971752  1.0
  C  C157  1  0.96343713  0.41052226  0.00810184  1.0
  C  C158  1  0.07578854  0.39823334  0.90650195  1.0
  C  C159  1  0.11696390  0.43380424  0.90279777  1.0
  C  C160  1  0.15133486  0.41083767  0.85302412  1.0
  C  C161  1  0.14434199  0.35236212  0.80683226  1.0
  C  C162  1  0.10357804  0.31652549  0.81087232  1.0
  C  C163  1  0.06938952  0.33942303  0.86082516  1.0
  C  C164  1  0.85565707  0.80686599  0.35233366  1.0
  C  C165  1  0.85643385  0.84626838  0.33048031  1.0
  C  C166  1  0.89040149  0.89640473  0.35694231  1.0
  C  C167  1  0.92351030  0.90716913  0.40534726  1.0
  C  C168  1  0.92201678  0.86835082  0.42791993  1.0
  C  C169  1  0.88819420  0.81806703  0.40128302  1.0
  C  C170  1  0.95853520  0.95644421  0.43066344  1.0
  C  C171  1  0.96088635  0.99426459  0.40696511  1.0
  C  C172  1  0.99697996  0.04262719  0.43112611  1.0
  C  C173  1  0.03076130  0.05307367  0.47895187  1.0
  C  C174  1  0.02780656  0.01580058  0.50326663  1.0
  C  C175  1  0.99164655  0.96745424  0.47912094  1.0
  C  C176  1  0.06795073  0.10041784  0.50195021  1.0
  C  C177  1  0.07052236  0.13771289  0.47766962  1.0
  C  C178  1  0.10863201  0.18423186  0.49954146  1.0
  C  C179  1  0.14434013  0.19326615  0.54552708  1.0
  C  C180  1  0.14130370  0.15639770  0.57032972  1.0
  C  C181  1  0.10296749  0.11005546  0.54864657  1.0
  C  C182  1  0.64433943  0.80686531  0.45454384  1.0
  C  C183  1  0.58838911  0.79826035  0.46032274  1.0
  C  C184  1  0.55291720  0.84708824  0.48753850  1.0
  C  C185  1  0.57345875  0.90453506  0.50907444  1.0
  C  C186  1  0.62960157  0.91326795  0.50427740  1.0
  C  C187  1  0.66503910  0.86438893  0.47683131  1.0
  C  C188  1  0.53763412  0.95311473  0.53479154  1.0
  C  C189  1  0.48133615  0.94399519  0.53811112  1.0
  C  C190  1  0.44519794  0.99231944  0.56229485  1.0
  C  C191  1  0.46541363  0.04975002  0.58307799  1.0
  C  C192  1  0.52182875  0.05899359  0.58061847  1.0
  C  C193  1  0.55797992  0.01063909  0.55647679  1.0
  C  C194  1  0.42905162  0.09781462  0.60566236  1.0
  C  C195  1  0.37273712  0.08834721  0.60829750  1.0
  C  C196  1  0.33603683  0.13609298  0.62946393  1.0
  C  C197  1  0.35565782  0.19327047  0.64773981  1.0
  C  C198  1  0.41209577  0.20286746  0.64579764  1.0
  C  C199  1  0.44883331  0.15513368  0.62491471  1.0
  O  O200  1  0.25000000  0.33333333  0.66666667  1.0
  O  O201  1  0.31467561  0.27142146  0.71371435  1.0
  O  O202  1  0.22089360  0.22440536  0.55773869  1.0
  O  O203  1  0.14975596  0.33340138  0.72868086  1.0
  O  O204  1  0.31467574  0.22440620  0.61968458  1.0
  O  O205  1  0.22089329  0.33340202  0.77569554  1.0
  O  O206  1  0.14975613  0.27141998  0.60475331  1.0
  O  O207  1  0.22089291  0.44235892  0.66666667  1.0
  O  O208  1  0.31467552  0.28638430  0.55770418  1.0
  O  O209  1  0.14975574  0.39534569  0.66666667  1.0
  O  O210  1  0.31467522  0.38041231  0.60471943  1.0
  O  O211  1  0.31467505  0.44239370  0.72868124  1.0
  O  O212  1  0.31467522  0.39538095  0.77569574  1.0
  O  O213  1  0.74999722  0.66666667  0.33333333  1.0
  O  O214  1  0.68532165  0.72871527  0.44236810  1.0
  O  O215  1  0.77910360  0.77572666  0.33337274  1.0
  O  O216  1  0.85024129  0.66673478  0.39535281  1.0
  O  O217  1  0.68532149  0.77572802  0.39535359  1.0
  O  O218  1  0.77910398  0.66673581  0.44236765  1.0
  O  O219  1  0.85024107  0.72871288  0.33337241  1.0
  O  O220  1  0.77910429  0.55770942  0.22437609  1.0
  O  O221  1  0.68532166  0.71374663  0.27139179  1.0
  O  O222  1  0.85024147  0.60472434  0.27139101  1.0
  O  O223  1  0.68532196  0.61971862  0.22437653  1.0
  O  O224  1  0.68532217  0.55774052  0.28635694  1.0
  O  O225  1  0.68532204  0.60475578  0.38038671  1.0
