# generated using pymatgen
data_CuH22C26(N2O3)2
_symmetry_space_group_name_H-M   'P 1'
_cell_length_a   9.99830000
_cell_length_b   11.01590000
_cell_length_c   12.37460000
_cell_angle_alpha   90.95500000
_cell_angle_beta   110.69400000
_cell_angle_gamma   95.11600000
_symmetry_Int_Tables_number   1
_chemical_formula_structural   CuH22C26(N2O3)2
_chemical_formula_sum   'Cu2 H44 C52 N8 O12'
_cell_volume   1268.22805821
_cell_formula_units_Z   2
loop_
 _symmetry_equiv_pos_site_id
 _symmetry_equiv_pos_as_xyz
  1  'x, y, z'
loop_
 _atom_site_type_symbol
 _atom_site_label
 _atom_site_symmetry_multiplicity
 _atom_site_fract_x
 _atom_site_fract_y
 _atom_site_fract_z
 _atom_site_occupancy
  Cu  Cu0  1  0.67535000  0.87699000  0.50347000  1
  Cu  Cu1  1  0.32465000  0.12301000  0.49653000  1
  H  H2  1  0.07910000  0.53720000  0.26110000  1
  H  H3  1  0.95250000  0.34800000  0.24710000  1
  H  H4  1  0.78290000  0.31770000  0.33560000  1
  H  H5  1  0.72370000  0.48360000  0.42250000  1
  H  H6  1  0.02850000  0.81670000  0.36660000  1
  H  H7  1  0.87580000  0.05420000  0.44700000  1
  H  H8  1  0.93260000  0.11630000  0.28930000  1
  H  H9  1  0.57270000  0.91440000  0.08070000  1
  H  H10  1  0.53130000  0.85230000  0.24480000  1
  H  H11  1  0.98370000  0.93980000  0.17600000  1
  H  H12  1  0.10260000  0.04050000  0.16350000  1
  H  H13  1  0.01840000  0.17410000  0.98410000  1
  H  H14  1  0.85410000  0.14620000  0.90020000  1
  H  H15  1  0.44310000  0.59380000  0.82290000  1
  H  H16  1  0.36110000  0.60700000  0.91220000  1
  H  H17  1  0.51900000  0.60410000  0.13130000  1
  H  H18  1  0.68640000  0.59160000  0.16080000  1
  H  H19  1  0.53810000  0.85910000  0.84950000  1
  H  H20  1  0.54330000  0.92660000  0.67580000  1
  H  H21  1  0.78400000  0.67250000  0.65420000  1
  H  H22  1  0.79430000  0.60380000  0.83130000  1
  H  H23  1  0.25300000  0.68020000  0.37750000  1
  H  H24  1  0.92090000  0.46280000  0.73890000  1
  H  H25  1  0.04750000  0.65200000  0.75290000  1
  H  H26  1  0.21710000  0.68230000  0.66440000  1
  H  H27  1  0.27630000  0.51640000  0.57750000  1
  H  H28  1  0.97150000  0.18330000  0.63340000  1
  H  H29  1  0.12420000  0.94580000  0.55300000  1
  H  H30  1  0.06740000  0.88370000  0.71070000  1
  H  H31  1  0.42730000  0.08560000  0.91930000  1
  H  H32  1  0.46870000  0.14770000  0.75520000  1
  H  H33  1  0.01630000  0.06020000  0.82400000  1
  H  H34  1  0.89740000  0.95950000  0.83650000  1
  H  H35  1  0.98160000  0.82590000  0.01590000  1
  H  H36  1  0.14590000  0.85380000  0.09980000  1
  H  H37  1  0.55690000  0.40620000  0.17710000  1
  H  H38  1  0.63890000  0.39300000  0.08780000  1
  H  H39  1  0.48100000  0.39590000  0.86870000  1
  H  H40  1  0.31360000  0.40840000  0.83920000  1
  H  H41  1  0.46190000  0.14090000  0.15050000  1
  H  H42  1  0.45670000  0.07340000  0.32420000  1
  H  H43  1  0.21600000  0.32750000  0.34580000  1
  H  H44  1  0.20570000  0.39620000  0.16870000  1
  H  H45  1  0.74700000  0.31980000  0.62250000  1
  C  C46  1  0.82910000  0.71360000  0.45630000  1
  C  C47  1  0.87020000  0.61020000  0.39820000  1
  C  C48  1  0.98210000  0.62700000  0.35350000  1
  C  C49  1  0.00810000  0.52710000  0.29570000  1
  C  C50  1  0.93320000  0.41430000  0.28760000  1
  C  C51  1  0.83060000  0.39680000  0.33750000  1
  C  C52  1  0.79730000  0.49490000  0.39070000  1
  C  C53  1  0.07240000  0.74350000  0.36780000  1
  C  C54  1  0.30500000  0.86990000  0.40540000  1
  C  C55  1  0.81430000  0.02460000  0.37160000  1
  C  C56  1  0.84830000  0.06280000  0.27790000  1
  C  C57  1  0.75880000  0.02250000  0.16730000  1
  C  C58  1  0.63750000  0.94340000  0.15510000  1
  C  C59  1  0.61310000  0.90800000  0.25350000  1
  C  C60  1  0.78320000  0.07130000  0.06270000  1
  C  C61  1  0.01800000  0.98290000  0.11970000  1
  C  C62  1  0.93880000  0.10850000  0.95110000  1
  C  C63  1  0.43970000  0.56840000  0.89830000  1
  C  C64  1  0.58880000  0.56610000  0.10470000  1
  C  C65  1  0.68100000  0.68340000  0.97870000  1
  C  C66  1  0.66510000  0.72270000  0.85990000  1
  C  C67  1  0.59070000  0.81950000  0.81110000  1
  C  C68  1  0.59300000  0.85840000  0.70700000  1
  C  C69  1  0.73390000  0.71170000  0.69510000  1
  C  C70  1  0.73950000  0.66940000  0.80000000  1
  C  C71  1  0.21100000  0.75320000  0.38230000  1
  C  C72  1  0.17090000  0.28640000  0.54370000  1
  C  C73  1  0.12980000  0.38980000  0.60180000  1
  C  C74  1  0.01790000  0.37300000  0.64650000  1
  C  C75  1  0.99190000  0.47290000  0.70430000  1
  C  C76  1  0.06680000  0.58570000  0.71240000  1
  C  C77  1  0.16940000  0.60320000  0.66250000  1
  C  C78  1  0.20270000  0.50510000  0.60930000  1
  C  C79  1  0.92760000  0.25650000  0.63220000  1
  C  C80  1  0.69500000  0.13010000  0.59460000  1
  C  C81  1  0.18570000  0.97540000  0.62840000  1
  C  C82  1  0.15170000  0.93720000  0.72210000  1
  C  C83  1  0.24120000  0.97750000  0.83270000  1
  C  C84  1  0.36250000  0.05660000  0.84490000  1
  C  C85  1  0.38690000  0.09200000  0.74650000  1
  C  C86  1  0.21680000  0.92870000  0.93730000  1
  C  C87  1  0.98200000  0.01710000  0.88030000  1
  C  C88  1  0.06120000  0.89150000  0.04890000  1
  C  C89  1  0.56030000  0.43160000  0.10170000  1
  C  C90  1  0.41120000  0.43390000  0.89530000  1
  C  C91  1  0.31900000  0.31660000  0.02130000  1
  C  C92  1  0.33490000  0.27730000  0.14010000  1
  C  C93  1  0.40930000  0.18050000  0.18890000  1
  C  C94  1  0.40700000  0.14160000  0.29300000  1
  C  C95  1  0.26610000  0.28830000  0.30490000  1
  C  C96  1  0.26050000  0.33060000  0.20000000  1
  C  C97  1  0.78900000  0.24680000  0.61770000  1
  N  N98  1  0.66170000  0.80490000  0.64760000  1
  N  N99  1  0.69850000  0.94780000  0.36080000  1
  N  N100  1  0.90410000  0.05090000  0.04480000  1
  N  N101  1  0.57740000  0.60890000  0.99100000  1
  N  N102  1  0.33830000  0.19510000  0.35240000  1
  N  N103  1  0.30150000  0.05220000  0.63920000  1
  N  N104  1  0.09590000  0.94910000  0.95520000  1
  N  N105  1  0.42260000  0.39110000  0.00900000  1
  O  O106  1  0.69390000  0.71430000  0.43810000  1
  O  O107  1  0.91990000  0.79390000  0.51760000  1
  O  O108  1  0.24550000  0.96670000  0.41100000  1
  O  O109  1  0.43270000  0.86670000  0.41710000  1
  O  O110  1  0.69050000  0.13030000  0.99790000  1
  O  O111  1  0.78940000  0.71920000  0.05990000  1
  O  O112  1  0.30610000  0.28570000  0.56190000  1
  O  O113  1  0.08010000  0.20610000  0.48240000  1
  O  O114  1  0.75450000  0.03330000  0.58900000  1
  O  O115  1  0.56730000  0.13330000  0.58290000  1
  O  O116  1  0.30950000  0.86970000  0.00210000  1
  O  O117  1  0.21060000  0.28080000  0.94010000  1
