# generated using pymatgen
data_Ag3H12C16(SN4)2
_symmetry_space_group_name_H-M   'P 1'
_cell_length_a   11.13500000
_cell_length_b   12.38000000
_cell_length_c   14.60700000
_cell_angle_alpha   84.66200000
_cell_angle_beta   89.53700000
_cell_angle_gamma   67.26100000
_symmetry_Int_Tables_number   1
_chemical_formula_structural   Ag3H12C16(SN4)2
_chemical_formula_sum   'Ag6 H24 C32 S4 N16'
_cell_volume   1848.18161102
_cell_formula_units_Z   2
loop_
 _symmetry_equiv_pos_site_id
 _symmetry_equiv_pos_as_xyz
  1  'x, y, z'
loop_
 _atom_site_type_symbol
 _atom_site_label
 _atom_site_symmetry_multiplicity
 _atom_site_fract_x
 _atom_site_fract_y
 _atom_site_fract_z
 _atom_site_occupancy
  Ag  Ag0  1  0.27092000  0.51881000  0.73996000  1
  Ag  Ag1  1  0.82223000  0.90341000  0.91585000  1
  Ag  Ag2  1  0.24109000  0.09228000  0.59621000  1
  Ag  Ag3  1  0.72908000  0.48119000  0.26004000  1
  Ag  Ag4  1  0.17777000  0.09659000  0.08415000  1
  Ag  Ag5  1  0.75891000  0.90772000  0.40379000  1
  H  H6  1  0.14390000  0.53420000  0.52890000  1
  H  H7  1  0.98050000  0.65430000  0.42950000  1
  H  H8  1  0.84140000  0.86640000  0.61860000  1
  H  H9  1  0.14140000  0.87720000  0.65870000  1
  H  H10  1  0.04610000  0.17410000  0.76730000  1
  H  H11  1  0.92930000  0.11470000  0.87500000  1
  H  H12  1  0.67020000  0.79750000  0.77210000  1
  H  H13  1  0.49800000  0.85460000  0.66880000  1
  H  H14  1  0.55760000  0.11820000  0.83980000  1
  H  H15  1  0.26950000  0.12380000  0.88190000  1
  H  H16  1  0.17090000  0.49830000  0.94560000  1
  H  H17  1  0.13650000  0.36800000  0.05010000  1
  H  H18  1  0.85610000  0.46580000  0.47110000  1
  H  H19  1  0.01950000  0.34570000  0.57050000  1
  H  H20  1  0.15860000  0.13360000  0.38140000  1
  H  H21  1  0.85860000  0.12280000  0.34130000  1
  H  H22  1  0.95390000  0.82590000  0.23270000  1
  H  H23  1  0.07070000  0.88530000  0.12500000  1
  H  H24  1  0.32980000  0.20250000  0.22790000  1
  H  H25  1  0.50200000  0.14540000  0.33120000  1
  H  H26  1  0.44240000  0.88180000  0.16020000  1
  H  H27  1  0.73050000  0.87620000  0.11810000  1
  H  H28  1  0.82910000  0.50170000  0.05440000  1
  H  H29  1  0.86350000  0.63200000  0.94990000  1
  C  C30  1  0.08340000  0.60320000  0.54860000  1
  C  C31  1  0.98500000  0.67550000  0.48840000  1
  C  C32  1  0.90430000  0.79900000  0.59840000  1
  C  C33  1  0.00270000  0.72740000  0.65820000  1
  C  C34  1  0.02370000  0.89370000  0.76460000  1
  C  C35  1  0.09640000  0.92800000  0.70160000  1
  C  C36  1  0.04160000  0.10090000  0.76550000  1
  C  C37  1  0.97060000  0.06570000  0.83000000  1
  C  C38  1  0.61270000  0.87600000  0.76560000  1
  C  C39  1  0.50870000  0.90980000  0.70340000  1
  C  C40  1  0.44250000  0.09630000  0.74500000  1
  C  C41  1  0.54700000  0.06260000  0.80560000  1
  C  C42  1  0.24980000  0.20020000  0.89650000  1
  C  C43  1  0.27470000  0.27870000  0.83430000  1
  C  C44  1  0.19350000  0.42120000  0.93190000  1
  C  C45  1  0.17130000  0.34310000  0.99400000  1
  C  C46  1  0.91660000  0.39680000  0.45140000  1
  C  C47  1  0.01500000  0.32450000  0.51160000  1
  C  C48  1  0.09570000  0.20100000  0.40160000  1
  C  C49  1  0.99730000  0.27260000  0.34180000  1
  C  C50  1  0.97630000  0.10630000  0.23540000  1
  C  C51  1  0.90360000  0.07200000  0.29840000  1
  C  C52  1  0.95840000  0.89910000  0.23450000  1
  C  C53  1  0.02940000  0.93430000  0.17000000  1
  C  C54  1  0.38730000  0.12400000  0.23440000  1
  C  C55  1  0.49130000  0.09020000  0.29660000  1
  C  C56  1  0.55750000  0.90370000  0.25500000  1
  C  C57  1  0.45300000  0.93740000  0.19440000  1
  C  C58  1  0.75020000  0.79980000  0.10350000  1
  C  C59  1  0.72530000  0.72130000  0.16570000  1
  C  C60  1  0.80650000  0.57880000  0.06810000  1
  C  C61  1  0.82870000  0.65690000  0.00600000  1
  S  S62  1  0.01157000  0.75436000  0.77545000  1
  S  S63  1  0.33227000  0.24516000  0.72383000  1
  S  S64  1  0.98843000  0.24564000  0.22455000  1
  S  S65  1  0.66773000  0.75484000  0.27617000  1
  N  N66  1  0.09600000  0.62760000  0.63370000  1
  N  N67  1  0.89550000  0.77600000  0.51330000  1
  N  N68  1  0.10440000  0.03340000  0.70030000  1
  N  N69  1  0.96000000  0.96150000  0.82910000  1
  N  N70  1  0.63420000  0.95100000  0.81650000  1
  N  N71  1  0.42270000  0.02270000  0.69300000  1
  N  N72  1  0.24720000  0.39000000  0.85110000  1
  N  N73  1  0.19760000  0.23110000  0.97800000  1
  N  N74  1  0.90400000  0.37240000  0.36630000  1
  N  N75  1  0.10450000  0.22400000  0.48670000  1
  N  N76  1  0.89560000  0.96660000  0.29970000  1
  N  N77  1  0.04000000  0.03850000  0.17090000  1
  N  N78  1  0.36580000  0.04900000  0.18350000  1
  N  N79  1  0.57730000  0.97730000  0.30700000  1
  N  N80  1  0.75280000  0.61000000  0.14890000  1
  N  N81  1  0.80240000  0.76890000  0.02200000  1
