# generated using pymatgen
data_Sm2H9C24(NO4)3
_symmetry_space_group_name_H-M   'P 1'
_cell_length_a   11.03800000
_cell_length_b   11.24900000
_cell_length_c   16.13200000
_cell_angle_alpha   75.24000000
_cell_angle_beta   82.80000000
_cell_angle_gamma   75.26000000
_symmetry_Int_Tables_number   1
_chemical_formula_structural   Sm2H9C24(NO4)3
_chemical_formula_sum   'Sm4 H18 C48 N6 O24'
_cell_volume   1869.28558412
_cell_formula_units_Z   2
loop_
 _symmetry_equiv_pos_site_id
 _symmetry_equiv_pos_as_xyz
  1  'x, y, z'
loop_
 _atom_site_type_symbol
 _atom_site_label
 _atom_site_symmetry_multiplicity
 _atom_site_fract_x
 _atom_site_fract_y
 _atom_site_fract_z
 _atom_site_occupancy
  Sm  Sm0  1  0.58754000  0.83987000  0.37340000  1
  Sm  Sm1  1  0.79283000  0.00495000  0.13442000  1
  Sm  Sm2  1  0.41246000  0.16013000  0.62660000  1
  Sm  Sm3  1  0.20717000  0.99505000  0.86558000  1
  H  H4  1  0.65986000  0.95777000  0.93284000  1
  H  H5  1  0.19905000  0.83568000  0.56229000  1
  H  H6  1  0.15014000  0.83853000  0.32078000  1
  H  H7  1  0.85548000  0.84565000  0.49492000  1
  H  H8  1  0.87254000  0.28764000  0.11016000  1
  H  H9  1  0.66524000  0.48368000  0.27574000  1
  H  H10  1  0.63731000  0.90107000  0.69955000  1
  H  H11  1  0.87597000  0.65169000  0.08207000  1
  H  H12  1  0.97409000  0.87494000  0.78217000  1
  H  H13  1  0.34014000  0.04223000  0.06716000  1
  H  H14  1  0.80095000  0.16432000  0.43771000  1
  H  H15  1  0.84986000  0.16147000  0.67922000  1
  H  H16  1  0.14452000  0.15435000  0.50508000  1
  H  H17  1  0.12746000  0.71236000  0.88984000  1
  H  H18  1  0.33476000  0.51632000  0.72426000  1
  H  H19  1  0.36269000  0.09893000  0.30045000  1
  H  H20  1  0.12403000  0.34831000  0.91793000  1
  H  H21  1  0.02591000  0.12506000  0.21783000  1
  C  C22  1  0.71620000  0.25000000  0.24610000  1
  C  C23  1  0.76220000  0.36590000  0.20000000  1
  C  C24  1  0.90490000  0.92500000  0.93480000  1
  C  C25  1  0.48640000  0.97790000  0.82590000  1
  C  C26  1  0.62560000  0.93890000  0.81650000  1
  C  C27  1  0.69830000  0.94040000  0.88120000  1
  C  C28  1  0.83010000  0.91560000  0.86750000  1
  C  C29  1  0.32730000  0.84380000  0.41210000  1
  C  C30  1  0.19480000  0.83730000  0.43790000  1
  C  C31  1  0.14670000  0.83690000  0.52100000  1
  C  C32  1  0.11720000  0.83990000  0.37660000  1
  C  C33  1  0.76610000  0.58550000  0.18500000  1
  C  C34  1  0.72490000  0.70740000  0.21290000  1
  C  C35  1  0.94020000  0.84330000  0.48080000  1
  C  C36  1  0.84520000  0.36180000  0.12950000  1
  C  C37  1  0.72180000  0.47960000  0.22810000  1
  C  C38  1  0.99100000  0.84440000  0.39710000  1
  C  C39  1  0.81400000  0.87960000  0.72850000  1
  C  C40  1  0.90100000  0.86060000  0.32790000  1
  C  C41  1  0.02090000  0.83840000  0.54380000  1
  C  C42  1  0.68530000  0.90570000  0.74160000  1
  C  C43  1  0.88910000  0.47010000  0.08640000  1
  C  C44  1  0.84870000  0.58010000  0.11250000  1
  C  C45  1  0.88740000  0.88800000  0.79180000  1
  C  C46  1  0.28380000  0.75000000  0.75390000  1
  C  C47  1  0.23780000  0.63410000  0.80000000  1
  C  C48  1  0.09510000  0.07500000  0.06520000  1
  C  C49  1  0.51360000  0.02210000  0.17410000  1
  C  C50  1  0.37440000  0.06110000  0.18350000  1
  C  C51  1  0.30170000  0.05960000  0.11880000  1
  C  C52  1  0.16990000  0.08440000  0.13250000  1
  C  C53  1  0.67270000  0.15620000  0.58790000  1
  C  C54  1  0.80520000  0.16270000  0.56210000  1
  C  C55  1  0.85330000  0.16310000  0.47900000  1
  C  C56  1  0.88280000  0.16010000  0.62340000  1
  C  C57  1  0.23390000  0.41450000  0.81500000  1
  C  C58  1  0.27510000  0.29260000  0.78710000  1
  C  C59  1  0.05980000  0.15670000  0.51920000  1
  C  C60  1  0.15480000  0.63820000  0.87050000  1
  C  C61  1  0.27820000  0.52040000  0.77190000  1
  C  C62  1  0.00900000  0.15560000  0.60290000  1
  C  C63  1  0.18600000  0.12040000  0.27150000  1
  C  C64  1  0.09900000  0.13940000  0.67210000  1
  C  C65  1  0.97910000  0.16160000  0.45620000  1
  C  C66  1  0.31470000  0.09430000  0.25840000  1
  C  C67  1  0.11090000  0.52990000  0.91360000  1
  C  C68  1  0.15130000  0.41990000  0.88750000  1
  C  C69  1  0.11260000  0.11200000  0.20820000  1
  N  N70  1  0.97500000  0.45510000  0.01460000  1
  N  N71  1  0.97840000  0.84810000  0.63040000  1
  N  N72  1  0.86200000  0.85930000  0.64540000  1
  N  N73  1  0.02500000  0.54490000  0.98540000  1
  N  N74  1  0.02160000  0.15190000  0.36960000  1
  N  N75  1  0.13800000  0.14070000  0.35460000  1
  O  O76  1  0.75850000  0.15330000  0.21760000  1
  O  O77  1  0.85160000  0.93200000  0.00760000  1
  O  O78  1  0.02070000  0.92410000  0.91540000  1
  O  O79  1  0.42470000  0.00530000  0.75870000  1
  O  O80  1  0.42900000  0.98110000  0.89780000  1
  O  O81  1  0.38800000  0.88140000  0.45980000  1
  O  O82  1  0.37940000  0.81500000  0.34350000  1
  O  O83  1  0.93520000  0.90280000  0.25090000  1
  O  O84  1  0.64090000  0.71290000  0.27350000  1
  O  O85  1  0.77590000  0.79510000  0.17470000  1
  O  O86  1  0.64180000  0.25450000  0.31050000  1
  O  O87  1  0.79710000  0.83270000  0.35400000  1
  O  O88  1  0.24150000  0.84670000  0.78240000  1
  O  O89  1  0.14840000  0.06800000  0.99240000  1
  O  O90  1  0.97930000  0.07590000  0.08460000  1
  O  O91  1  0.57530000  0.99470000  0.24130000  1
  O  O92  1  0.57100000  0.01890000  0.10220000  1
  O  O93  1  0.61200000  0.11860000  0.54020000  1
  O  O94  1  0.62060000  0.18500000  0.65650000  1
  O  O95  1  0.06480000  0.09720000  0.74910000  1
  O  O96  1  0.35910000  0.28710000  0.72650000  1
  O  O97  1  0.22410000  0.20490000  0.82530000  1
  O  O98  1  0.35820000  0.74550000  0.68950000  1
  O  O99  1  0.20290000  0.16730000  0.64600000  1
