# generated using pymatgen
data_CdH36C32I2(N3O)4
_symmetry_space_group_name_H-M   'P 1'
_cell_length_a   9.84630000
_cell_length_b   16.85120000
_cell_length_c   17.25421896
_cell_angle_alpha   101.21905338
_cell_angle_beta   106.57809610
_cell_angle_gamma   90.00000000
_symmetry_Int_Tables_number   1
_chemical_formula_structural   CdH36C32I2(N3O)4
_chemical_formula_sum   'Cd2 H72 C64 I4 N24 O8'
_cell_volume   2686.72032140
_cell_formula_units_Z   2
loop_
 _symmetry_equiv_pos_site_id
 _symmetry_equiv_pos_as_xyz
  1  'x, y, z'
loop_
 _atom_site_type_symbol
 _atom_site_label
 _atom_site_symmetry_multiplicity
 _atom_site_fract_x
 _atom_site_fract_y
 _atom_site_fract_z
 _atom_site_occupancy
  Cd  Cd0  1  0.00000000  0.50000000  0.00000000  1
  Cd  Cd1  1  0.00000000  0.00000000  0.00000000  1
  H  H2  1  0.05240000  0.12300000  0.76620000  1
  H  H3  1  0.38680000  0.09180000  0.72680000  1
  H  H4  1  0.05220000  0.95840000  0.62620000  1
  H  H5  1  0.09800000  0.01940000  0.71120000  1
  H  H6  1  0.09860000  0.08590000  0.57500000  1
  H  H7  1  0.20530000  0.10740000  0.66420000  1
  H  H8  1  0.71490000  0.00230000  0.57000000  1
  H  H9  1  0.83090000  0.94710000  0.54620000  1
  H  H10  1  0.26120000  0.91080000  0.50900000  1
  H  H11  1  0.10740000  0.93570000  0.50820000  1
  H  H12  1  0.77550000  0.36500000  0.84600000  1
  H  H13  1  0.76820000  0.24970000  0.75260000  1
  H  H14  1  0.15090000  0.21480000  0.88420000  1
  H  H15  1  0.13860000  0.33030000  0.97520000  1
  H  H16  1  0.88000000  0.97870000  0.80820000  1
  H  H17  1  0.68070000  0.98540000  0.70160000  1
  H  H18  1  0.51050000  0.11400000  0.86800000  1
  H  H19  1  0.71250000  0.10210000  0.96780000  1
  H  H20  1  0.28620000  0.37700000  0.23380000  1
  H  H21  1  0.66000000  0.40820000  0.27320000  1
  H  H22  1  0.42600000  0.54160000  0.37380000  1
  H  H23  1  0.38680000  0.48060000  0.28880000  1
  H  H24  1  0.52360000  0.41410000  0.42500000  1
  H  H25  1  0.54110000  0.39260000  0.33580000  1
  H  H26  1  0.14490000  0.49770000  0.43000000  1
  H  H27  1  0.28470000  0.55290000  0.45380000  1
  H  H28  1  0.75220000  0.58920000  0.49100000  1
  H  H29  1  0.59920000  0.56430000  0.49180000  1
  H  H30  1  0.92950000  0.13500000  0.15400000  1
  H  H31  1  0.01560000  0.25030000  0.24740000  1
  H  H32  1  0.26670000  0.28520000  0.11580000  1
  H  H33  1  0.16340000  0.16970000  0.02480000  1
  H  H34  1  0.07180000  0.52130000  0.19180000  1
  H  H35  1  0.97910000  0.51460000  0.29840000  1
  H  H36  1  0.64250000  0.38600000  0.13200000  1
  H  H37  1  0.74470000  0.39790000  0.03220000  1
  H  H38  1  0.94760000  0.87700000  0.23380000  1
  H  H39  1  0.61320000  0.90820000  0.27320000  1
  H  H40  1  0.94780000  0.04160000  0.37380000  1
  H  H41  1  0.90200000  0.98060000  0.28880000  1
  H  H42  1  0.90140000  0.91410000  0.42500000  1
  H  H43  1  0.79470000  0.89260000  0.33580000  1
  H  H44  1  0.28510000  0.99770000  0.43000000  1
  H  H45  1  0.16910000  0.05290000  0.45380000  1
  H  H46  1  0.73880000  0.08920000  0.49100000  1
  H  H47  1  0.89260000  0.06430000  0.49180000  1
  H  H48  1  0.22450000  0.63500000  0.15400000  1
  H  H49  1  0.23180000  0.75030000  0.24740000  1
  H  H50  1  0.84910000  0.78520000  0.11580000  1
  H  H51  1  0.86140000  0.66970000  0.02480000  1
  H  H52  1  0.12000000  0.02130000  0.19180000  1
  H  H53  1  0.31930000  0.01460000  0.29840000  1
  H  H54  1  0.48950000  0.88600000  0.13200000  1
  H  H55  1  0.28750000  0.89790000  0.03220000  1
  H  H56  1  0.71380000  0.62300000  0.76620000  1
  H  H57  1  0.34000000  0.59180000  0.72680000  1
  H  H58  1  0.57400000  0.45840000  0.62620000  1
  H  H59  1  0.61320000  0.51940000  0.71120000  1
  H  H60  1  0.47640000  0.58590000  0.57500000  1
  H  H61  1  0.45890000  0.60740000  0.66420000  1
  H  H62  1  0.85510000  0.50230000  0.57000000  1
  H  H63  1  0.71530000  0.44710000  0.54620000  1
  H  H64  1  0.24780000  0.41080000  0.50900000  1
  H  H65  1  0.40080000  0.43570000  0.50820000  1
  H  H66  1  0.07050000  0.86500000  0.84600000  1
  H  H67  1  0.98440000  0.74970000  0.75260000  1
  H  H68  1  0.73330000  0.71480000  0.88420000  1
  H  H69  1  0.83660000  0.83030000  0.97520000  1
  H  H70  1  0.92820000  0.47870000  0.80820000  1
  H  H71  1  0.02090000  0.48540000  0.70160000  1
  H  H72  1  0.35750000  0.61400000  0.86800000  1
  H  H73  1  0.25530000  0.60210000  0.96780000  1
  C  C74  1  0.05705000  0.01510000  0.65230000  1
  C  C75  1  0.15554000  0.06300000  0.62028000  1
  C  C76  1  0.80732000  0.00290000  0.56044000  1
  C  C77  1  0.20149000  0.95640000  0.51198000  1
  C  C78  1  0.87528000  0.11230000  0.67916000  1
  C  C79  1  0.85590000  0.33510000  0.85360000  1
  C  C80  1  0.84970000  0.26520000  0.79660000  1
  C  C81  1  0.96298000  0.21880000  0.80496000  1
  C  C82  1  0.07070000  0.24460000  0.87300000  1
  C  C83  1  0.06310000  0.31620000  0.92720000  1
  C  C84  1  0.39612000  0.00530000  0.63604000  1
  C  C85  1  0.80404000  0.00590000  0.82028000  1
  C  C86  1  0.68421000  0.00940000  0.75542000  1
  C  C87  1  0.56983000  0.04920000  0.77246000  1
  C  C88  1  0.58373000  0.08530000  0.85406000  1
  C  C89  1  0.70600000  0.07820000  0.91340000  1
  C  C90  1  0.40475000  0.48490000  0.34770000  1
  C  C91  1  0.53526000  0.43700000  0.37972000  1
  C  C92  1  0.24688000  0.49710000  0.43956000  1
  C  C93  1  0.68951000  0.54360000  0.48802000  1
  C  C94  1  0.19612000  0.38770000  0.32084000  1
  C  C95  1  0.00230000  0.16490000  0.14640000  1
  C  C96  1  0.05310000  0.23480000  0.20340000  1
  C  C97  1  0.15802000  0.28120000  0.19504000  1
  C  C98  1  0.19770000  0.25540000  0.12700000  1
  C  C99  1  0.13590000  0.18380000  0.07280000  1
  C  C100  1  0.76008000  0.49470000  0.36396000  1
  C  C101  1  0.98376000  0.49410000  0.17972000  1
  C  C102  1  0.92879000  0.49060000  0.24458000  1
  C  C103  1  0.79737000  0.45080000  0.22754000  1
  C  C104  1  0.72967000  0.41470000  0.14594000  1
  C  C105  1  0.79260000  0.42180000  0.08660000  1
  C  C106  1  0.94295000  0.98490000  0.34770000  1
  C  C107  1  0.84446000  0.93700000  0.37972000  1
  C  C108  1  0.19268000  0.99710000  0.43956000  1
  C  C109  1  0.79851000  0.04360000  0.48802000  1
  C  C110  1  0.12472000  0.88770000  0.32084000  1
  C  C111  1  0.14410000  0.66490000  0.14640000  1
  C  C112  1  0.15030000  0.73480000  0.20340000  1
  C  C113  1  0.03702000  0.78120000  0.19504000  1
  C  C114  1  0.92930000  0.75540000  0.12700000  1
  C  C115  1  0.93690000  0.68380000  0.07280000  1
  C  C116  1  0.60388000  0.99470000  0.36396000  1
  C  C117  1  0.19596000  0.99410000  0.17972000  1
  C  C118  1  0.31579000  0.99060000  0.24458000  1
  C  C119  1  0.43017000  0.95080000  0.22754000  1
  C  C120  1  0.41627000  0.91470000  0.14594000  1
  C  C121  1  0.29400000  0.92180000  0.08660000  1
  C  C122  1  0.59525000  0.51510000  0.65230000  1
  C  C123  1  0.46474000  0.56300000  0.62028000  1
  C  C124  1  0.75312000  0.50290000  0.56044000  1
  C  C125  1  0.31049000  0.45640000  0.51198000  1
  C  C126  1  0.80388000  0.61230000  0.67916000  1
  C  C127  1  0.99770000  0.83510000  0.85360000  1
  C  C128  1  0.94690000  0.76520000  0.79660000  1
  C  C129  1  0.84198000  0.71880000  0.80496000  1
  C  C130  1  0.80230000  0.74460000  0.87300000  1
  C  C131  1  0.86410000  0.81620000  0.92720000  1
  C  C132  1  0.23992000  0.50530000  0.63604000  1
  C  C133  1  0.01624000  0.50590000  0.82028000  1
  C  C134  1  0.07121000  0.50940000  0.75542000  1
  C  C135  1  0.20263000  0.54920000  0.77246000  1
  C  C136  1  0.27033000  0.58530000  0.85406000  1
  C  C137  1  0.20740000  0.57820000  0.91340000  1
  I  I138  1  0.30585000  0.46969000  0.09362000  1
  I  I139  1  0.21223000  0.03031000  0.90638000  1
  I  I140  1  0.69415000  0.53031000  0.90638000  1
  I  I141  1  0.78777000  0.96969000  0.09362000  1
  N  N142  1  0.91257000  0.04320000  0.63674000  1
  N  N143  1  0.25946000  0.01220000  0.59192000  1
  N  N144  1  0.97540000  0.14750000  0.75220000  1
  N  N145  1  0.96344000  0.36380000  0.91748000  1
  N  N146  1  0.44151000  0.05500000  0.71382000  1
  N  N147  1  0.81728000  0.03910000  0.89896000  1
  N  N148  1  0.27583000  0.45680000  0.36326000  1
  N  N149  1  0.66754000  0.48780000  0.40808000  1
  N  N150  1  0.22320000  0.35250000  0.24780000  1
  N  N151  1  0.04596000  0.13620000  0.08252000  1
  N  N152  1  0.72769000  0.44500000  0.28618000  1
  N  N153  1  0.91832000  0.46090000  0.10104000  1
  N  N154  1  0.08743000  0.95680000  0.36326000  1
  N  N155  1  0.74054000  0.98780000  0.40808000  1
  N  N156  1  0.02460000  0.85250000  0.24780000  1
  N  N157  1  0.03656000  0.63620000  0.08252000  1
  N  N158  1  0.55849000  0.94500000  0.28618000  1
  N  N159  1  0.18272000  0.96090000  0.10104000  1
  N  N160  1  0.72417000  0.54320000  0.63674000  1
  N  N161  1  0.33246000  0.51220000  0.59192000  1
  N  N162  1  0.77680000  0.64750000  0.75220000  1
  N  N163  1  0.95404000  0.86380000  0.91748000  1
  N  N164  1  0.27231000  0.55500000  0.71382000  1
  N  N165  1  0.08168000  0.53910000  0.89896000  1
  O  O166  1  0.76153000  0.14080000  0.65506000  1
  O  O167  1  0.47217000  0.95780000  0.60874000  1
  O  O168  1  0.10647000  0.35920000  0.34494000  1
  O  O169  1  0.86343000  0.54220000  0.39126000  1
  O  O170  1  0.23847000  0.85920000  0.34494000  1
  O  O171  1  0.52783000  0.04220000  0.39126000  1
  O  O172  1  0.89353000  0.64080000  0.65506000  1
  O  O173  1  0.13657000  0.45780000  0.60874000  1
