# generated using pymatgen
data_Zr3H14(C3O2)8
_symmetry_space_group_name_H-M   'P 1'
_cell_length_a   14.75470223
_cell_length_b   14.75470223
_cell_length_c   14.75470223
_cell_angle_alpha   60.00000000
_cell_angle_beta   60.00000000
_cell_angle_gamma   60.00000000
_symmetry_Int_Tables_number   1
_chemical_formula_structural   Zr3H14(C3O2)8
_chemical_formula_sum   'Zr6 H28 C48 O32'
_cell_volume   2271.30967042
_cell_formula_units_Z   2
loop_
 _symmetry_equiv_pos_site_id
 _symmetry_equiv_pos_as_xyz
  1  'x, y, z'
loop_
 _atom_site_type_symbol
 _atom_site_label
 _atom_site_symmetry_multiplicity
 _atom_site_fract_x
 _atom_site_fract_y
 _atom_site_fract_z
 _atom_site_occupancy
  Zr  Zr0  1  0.87956000  0.87956000  0.12044000  1.0
  Zr  Zr1  1  0.12044000  0.12044000  0.87956000  1.0
  Zr  Zr2  1  0.87956000  0.12044000  0.12044000  1.0
  Zr  Zr3  1  0.12044000  0.87956000  0.87956000  1.0
  Zr  Zr4  1  0.87956000  0.12044000  0.87956000  1.0
  Zr  Zr5  1  0.12044000  0.87956000  0.12044000  1.0
  H  H6  1  0.59252000  0.84706000  0.42208000  1.0
  H  H7  1  0.42207000  0.13833000  0.59255000  1.0
  H  H8  1  0.13832000  0.42208000  0.84706000  1.0
  H  H9  1  0.84704000  0.59254000  0.13834000  1.0
  H  H10  1  0.59253000  0.42209000  0.13833000  1.0
  H  H11  1  0.42208000  0.59254000  0.84706000  1.0
  H  H12  1  0.13832000  0.84706000  0.59254000  1.0
  H  H13  1  0.84704000  0.13834000  0.42208000  1.0
  H  H14  1  0.59252000  0.13834000  0.84706000  1.0
  H  H15  1  0.42206000  0.84706000  0.13834000  1.0
  H  H16  1  0.13832000  0.59254000  0.42208000  1.0
  H  H17  1  0.84706000  0.42208000  0.59254000  1.0
  H  H18  1  0.59253000  0.13833000  0.42209000  1.0
  H  H19  1  0.42208000  0.84706000  0.59254000  1.0
  H  H20  1  0.13832000  0.59254000  0.84706000  1.0
  H  H21  1  0.84704000  0.42208000  0.13834000  1.0
  H  H22  1  0.59252000  0.84706000  0.13834000  1.0
  H  H23  1  0.42206000  0.13834000  0.84706000  1.0
  H  H24  1  0.13832000  0.42208000  0.59254000  1.0
  H  H25  1  0.84704000  0.59254000  0.42208000  1.0
  H  H26  1  0.59254000  0.42208000  0.84706000  1.0
  H  H27  1  0.42207000  0.59255000  0.13833000  1.0
  H  H28  1  0.13832000  0.84706000  0.42208000  1.0
  H  H29  1  0.84704000  0.13834000  0.59254000  1.0
  H  H30  1  0.09440000  0.71676000  0.09442000  1.0
  H  H31  1  0.09441000  0.09443000  0.09441000  1.0
  H  H32  1  0.09441000  0.09443000  0.71675000  1.0
  H  H33  1  0.71674000  0.09442000  0.09442000  1.0
  C  C34  1  0.55444000  0.91026000  0.46030000  1.0
  C  C35  1  0.46030000  0.07500000  0.55444000  1.0
  C  C36  1  0.07502000  0.46030000  0.91026000  1.0
  C  C37  1  0.91028000  0.55442000  0.07500000  1.0
  C  C38  1  0.55444000  0.46030000  0.07500000  1.0
  C  C39  1  0.46032000  0.55442000  0.91026000  1.0
  C  C40  1  0.07500000  0.91026000  0.55444000  1.0
  C  C41  1  0.91028000  0.07500000  0.46030000  1.0
  C  C42  1  0.55444000  0.07500000  0.91026000  1.0
  C  C43  1  0.46032000  0.91026000  0.07500000  1.0
  C  C44  1  0.07502000  0.55442000  0.46030000  1.0
  C  C45  1  0.91026000  0.46030000  0.55444000  1.0
  C  C46  1  0.55444000  0.07500000  0.46030000  1.0
  C  C47  1  0.46030000  0.91026000  0.55444000  1.0
  C  C48  1  0.07502000  0.55442000  0.91026000  1.0
  C  C49  1  0.91028000  0.46030000  0.07500000  1.0
  C  C50  1  0.55444000  0.91026000  0.07500000  1.0
  C  C51  1  0.46032000  0.07500000  0.91026000  1.0
  C  C52  1  0.07500000  0.46030000  0.55444000  1.0
  C  C53  1  0.91028000  0.55442000  0.46030000  1.0
  C  C54  1  0.55444000  0.46030000  0.91026000  1.0
  C  C55  1  0.46030000  0.55444000  0.07500000  1.0
  C  C56  1  0.07502000  0.91026000  0.46030000  1.0
  C  C57  1  0.91026000  0.07500000  0.55444000  1.0
  C  C58  1  0.60137000  0.99309000  0.41245000  1.0
  C  C59  1  0.41247000  0.99309000  0.60135000  1.0
  C  C60  1  0.99310000  0.41246000  0.99308000  1.0
  C  C61  1  0.99310000  0.60136000  0.99308000  1.0
  C  C62  1  0.60137000  0.41245000  0.99309000  1.0
  C  C63  1  0.41247000  0.60135000  0.99309000  1.0
  C  C64  1  0.99310000  0.99308000  0.60136000  1.0
  C  C65  1  0.99310000  0.99308000  0.41246000  1.0
  C  C66  1  0.60137000  0.99309000  0.99309000  1.0
  C  C67  1  0.41247000  0.99309000  0.99309000  1.0
  C  C68  1  0.99310000  0.60136000  0.41246000  1.0
  C  C69  1  0.99310000  0.41246000  0.60136000  1.0
  C  C70  1  0.99546000  0.99546000  0.30910000  1.0
  C  C71  1  0.30910000  0.69998000  0.99546000  1.0
  C  C72  1  0.69998000  0.30910000  0.99546000  1.0
  C  C73  1  0.99546000  0.99546000  0.69998000  1.0
  C  C74  1  0.99546000  0.30910000  0.69998000  1.0
  C  C75  1  0.30910000  0.99546000  0.99546000  1.0
  C  C76  1  0.69998000  0.99546000  0.99546000  1.0
  C  C77  1  0.99546000  0.69998000  0.30910000  1.0
  C  C78  1  0.99546000  0.69998000  0.99546000  1.0
  C  C79  1  0.30910000  0.99546000  0.69998000  1.0
  C  C80  1  0.69998000  0.99546000  0.30910000  1.0
  C  C81  1  0.99546000  0.30910000  0.99546000  1.0
  O  O82  1  0.07402000  0.92000000  0.26772000  1.0
  O  O83  1  0.26772000  0.73826000  0.07402000  1.0
  O  O84  1  0.73826000  0.26772000  0.92000000  1.0
  O  O85  1  0.92000000  0.07402000  0.73826000  1.0
  O  O86  1  0.07402000  0.26772000  0.73826000  1.0
  O  O87  1  0.26772000  0.07402000  0.92000000  1.0
  O  O88  1  0.73826000  0.92000000  0.07402000  1.0
  O  O89  1  0.92000000  0.73826000  0.26772000  1.0
  O  O90  1  0.07402000  0.73826000  0.92000000  1.0
  O  O91  1  0.26772000  0.92000000  0.73826000  1.0
  O  O92  1  0.73826000  0.07402000  0.26772000  1.0
  O  O93  1  0.92000000  0.26772000  0.07402000  1.0
  O  O94  1  0.07402000  0.73826000  0.26772000  1.0
  O  O95  1  0.26772000  0.92000000  0.07402000  1.0
  O  O96  1  0.73826000  0.07402000  0.92000000  1.0
  O  O97  1  0.92000000  0.26772000  0.73826000  1.0
  O  O98  1  0.07402000  0.92000000  0.73826000  1.0
  O  O99  1  0.26772000  0.73826000  0.92000000  1.0
  O  O100  1  0.73826000  0.26772000  0.07402000  1.0
  O  O101  1  0.92000000  0.07402000  0.26772000  1.0
  O  O102  1  0.07402000  0.26772000  0.92000000  1.0
  O  O103  1  0.26772000  0.07402000  0.73826000  1.0
  O  O104  1  0.73826000  0.92000000  0.26772000  1.0
  O  O105  1  0.92000000  0.73826000  0.07402000  1.0
  O  O106  1  0.06751000  0.79747000  0.06751000  1.0
  O  O107  1  0.06751000  0.06751000  0.06751000  1.0
  O  O108  1  0.06751000  0.06751000  0.79747000  1.0
  O  O109  1  0.79747000  0.06751000  0.06751000  1.0
  O  O110  1  0.95036000  0.14892000  0.95036000  1.0
  O  O111  1  0.95037000  0.95035000  0.95035000  1.0
  O  O112  1  0.95037000  0.95035000  0.14893000  1.0
  O  O113  1  0.14894000  0.95034000  0.95036000  1.0
