# generated using pymatgen
data_Al3H36C60O13
_symmetry_space_group_name_H-M   'P 1'
_cell_length_a   24.20642113
_cell_length_b   30.52452363
_cell_length_c   30.52485032
_cell_angle_alpha   119.99964646
_cell_angle_beta   90.00000154
_cell_angle_gamma   89.99999584
_symmetry_Int_Tables_number   1
_chemical_formula_structural   Al3H36C60O13
_chemical_formula_sum   'Al6 H72 C120 O26'
_cell_volume   19532.83140414
_cell_formula_units_Z   2
loop_
 _symmetry_equiv_pos_site_id
 _symmetry_equiv_pos_as_xyz
  1  'x, y, z'
loop_
 _atom_site_type_symbol
 _atom_site_label
 _atom_site_symmetry_multiplicity
 _atom_site_fract_x
 _atom_site_fract_y
 _atom_site_fract_z
 _atom_site_occupancy
  Al  Al0  1  0.25000413  0.69950998  0.39901406  1.0
  Al  Al1  1  0.25000413  0.69951079  0.30059220  1.0
  Al  Al2  1  0.25000413  0.60108577  0.30059373  1.0
  Al  Al3  1  0.75000413  0.30055626  0.60111842  1.0
  Al  Al4  1  0.75000414  0.30055545  0.69954028  1.0
  Al  Al5  1  0.75000413  0.39898047  0.69953875  1.0
  H  H6  1  0.21588370  0.86303980  0.41412540  1.0
  H  H7  1  0.15181422  0.94561835  0.45096406  1.0
  H  H8  1  0.99793490  0.84796520  0.43514671  1.0
  H  H9  1  0.06212294  0.76544212  0.39873023  1.0
  H  H10  1  0.10650161  0.00551102  0.48033233  1.0
  H  H11  1  0.04384215  0.08916783  0.52223912  1.0
  H  H12  1  0.88905487  0.99182763  0.50444658  1.0
  H  H13  1  0.95174615  0.90817229  0.46251041  1.0
  H  H14  1  0.99892439  0.14925108  0.55246816  1.0
  H  H15  1  0.93779047  0.23360071  0.59897664  1.0
  H  H16  1  0.78333472  0.13738172  0.58508517  1.0
  H  H17  1  0.84440708  0.05297539  0.53805488  1.0
  H  H18  1  0.57232632  0.22730449  0.65443956  1.0
  H  H19  1  0.50741153  0.14525766  0.60930822  1.0
  H  H20  1  0.64021908  0.06262380  0.48480987  1.0
  H  H21  1  0.70536097  0.14454690  0.53022980  1.0
  H  H22  1  0.46212292  0.08534991  0.57876662  1.0
  H  H23  1  0.39942619  0.00171656  0.53704354  1.0
  H  H24  1  0.53051722  0.91927827  0.41083900  1.0
  H  H25  1  0.59318538  0.00294814  0.45257471  1.0
  H  H26  1  0.35448112  0.94165048  0.50720905  1.0
  H  H27  1  0.29411466  0.85681811  0.46881559  1.0
  H  H28  1  0.42666877  0.77254695  0.34457649  1.0
  H  H29  1  0.48672675  0.85759130  0.38268255  1.0
  H  H30  1  0.42511501  0.65724132  0.43161087  1.0
  H  H31  1  0.48462485  0.61809753  0.47791297  1.0
  H  H32  1  0.35465981  0.49044912  0.43111335  1.0
  H  H33  1  0.29539747  0.52935574  0.38439936  1.0
  H  H34  1  0.52919393  0.58835307  0.50852875  1.0
  H  H35  1  0.59199325  0.54651642  0.55026095  1.0
  H  H36  1  0.46120939  0.41997042  0.50596259  1.0
  H  H37  1  0.39840933  0.46185217  0.46425740  1.0
  H  H38  1  0.63717462  0.51642022  0.58008223  1.0
  H  H39  1  0.70281228  0.47218751  0.61736696  1.0
  H  H40  1  0.57455641  0.34318572  0.56993581  1.0
  H  H41  1  0.50864825  0.38777240  0.53315717  1.0
  H  H42  1  0.21780214  0.56263575  0.42688227  1.0
  H  H43  1  0.15517069  0.52555835  0.47328765  1.0
  H  H44  1  0.99806172  0.58794171  0.43598627  1.0
  H  H45  1  0.06068514  0.62462341  0.38916107  1.0
  H  H46  1  0.11004817  0.49618024  0.50392173  1.0
  H  H47  1  0.04736159  0.45426897  0.54565020  1.0
  H  H48  1  0.89002289  0.51844884  0.51088478  1.0
  H  H49  1  0.95274958  0.56037914  0.46918201  1.0
  H  H50  1  0.00238130  0.42403967  0.57546483  1.0
  H  H51  1  0.93984488  0.37775407  0.61264695  1.0
  H  H52  1  0.78177126  0.43829119  0.57468940  1.0
  H  H53  1  0.84440155  0.48504770  0.53801922  1.0
  H  H54  1  0.80659123  0.47955993  0.84894006  1.0
  H  H55  1  0.86594455  0.51888320  0.93448347  1.0
  H  H56  1  0.97290441  0.37320765  0.86633862  1.0
  H  H57  1  0.91384068  0.33407299  0.78059401  1.0
  H  H58  1  0.91060542  0.54852104  0.99478535  1.0
  H  H59  1  0.97336297  0.59040483  0.07837956  1.0
  H  H60  1  0.07908994  0.44410451  0.01189394  1.0
  H  H61  1  0.01628461  0.40222988  0.92831122  1.0
  H  H62  1  0.01849756  0.62055427  0.13832582  1.0
  H  H63  1  0.08423958  0.66466560  0.21977674  1.0
  H  H64  1  0.19302948  0.52020399  0.15227771  1.0
  H  H65  1  0.12687087  0.47590721  0.07107078  1.0
  H  H66  1  0.71221942  0.40186660  0.86076975  1.0
  H  H67  1  0.65109150  0.44851949  0.94519715  1.0
  H  H68  1  0.50577401  0.46127186  0.85292984  1.0
  H  H69  1  0.56676344  0.41418349  0.76839628  1.0
  H  H70  1  0.60617557  0.47921080  0.00533862  1.0
  H  H71  1  0.54345887  0.52092583  0.08895853  1.0
  H  H72  1  0.39859847  0.53625774  0.99786256  1.0
  H  H73  1  0.46136097  0.49455997  0.91425291  1.0
  H  H74  1  0.49841059  0.55071881  0.14895906  1.0
  H  H75  1  0.43440679  0.58765074  0.23150313  1.0
  H  H76  1  0.28772411  0.59969715  0.14017397  1.0
  H  H77  1  0.35197587  0.56327621  0.05776785  1.0
  C  C78  1  0.32011776  0.61995532  0.38014651  1.0
  C  C79  1  0.32011776  0.76018901  0.38014433  1.0
  C  C80  1  0.32011776  0.61995568  0.23990917  1.0
  C  C81  1  0.17988224  0.61995532  0.38014651  1.0
  C  C82  1  0.17988224  0.76018902  0.38014433  1.0
  C  C83  1  0.17988224  0.61995568  0.23990917  1.0
  C  C84  1  0.82011776  0.38011092  0.61998597  1.0
  C  C85  1  0.82011777  0.23987724  0.61998816  1.0
  C  C86  1  0.82011776  0.38011057  0.76022332  1.0
  C  C87  1  0.67988224  0.38011093  0.61998597  1.0
  C  C88  1  0.67988225  0.23987724  0.61998816  1.0
  C  C89  1  0.67988224  0.38011057  0.76022332  1.0
  C  C90  1  0.14386598  0.80821091  0.40415525  1.0
  C  C91  1  0.16955282  0.85985534  0.41870576  1.0
  C  C92  1  0.13275844  0.90728448  0.43982441  1.0
  C  C93  1  0.07023974  0.90300932  0.44627850  1.0
  C  C94  1  0.04432828  0.85118854  0.43078842  1.0
  C  C95  1  0.08119222  0.80378438  0.40987195  1.0
  C  C96  1  0.03385763  0.95074974  0.46882465  1.0
  C  C97  1  0.06025093  0.00265075  0.48554477  1.0
  C  C98  1  0.02427709  0.05066342  0.50952903  1.0
  C  C99  1  0.96190836  0.04671931  0.51683633  1.0
  C  C100  1  0.93532308  0.99471710  0.49932418  1.0
  C  C101  1  0.97132010  0.94668222  0.47527498  1.0
  C  C102  1  0.92632126  0.09491778  0.54227785  1.0
  C  C103  1  0.95308222  0.14675472  0.55943605  1.0
  C  C104  1  0.91796721  0.19522846  0.58617725  1.0
  C  C105  1  0.85613402  0.19185533  0.59597723  1.0
  C  C106  1  0.82918072  0.13991703  0.57818634  1.0
  C  C107  1  0.86426061  0.09140312  0.55116646  1.0
  C  C108  1  0.64386598  0.19185532  0.59597723  1.0
  C  C109  1  0.58681703  0.19224048  0.61842992  1.0
  C  C110  1  0.54950296  0.14513823  0.59249356  1.0
  C  C111  1  0.56923286  0.09769025  0.54402693  1.0
  C  C112  1  0.62583579  0.09762068  0.52097036  1.0
  C  C113  1  0.66325862  0.14467329  0.54705571  1.0
  C  C114  1  0.53253181  0.05015043  0.51906228  1.0
  C  C115  1  0.47667024  0.04997654  0.54308186  1.0
  C  C116  1  0.44063903  0.00199994  0.51909479  1.0
  C  C117  1  0.46057078  0.95418827  0.47111297  1.0
  C  C118  1  0.51599804  0.95461578  0.44657698  1.0
  C  C119  1  0.55200485  0.00264449  0.47055555  1.0
  C  C120  1  0.42533396  0.90576948  0.44810395  1.0
  C  C121  1  0.36982085  0.90567171  0.47263949  1.0
  C  C122  1  0.33513734  0.85692656  0.45059642  1.0
  C  C123  1  0.35613403  0.80821093  0.40415526  1.0
  C  C124  1  0.41133161  0.80848753  0.37917705  1.0
  C  C125  1  0.44586296  0.85734648  0.40106586  1.0
  C  C126  1  0.35613313  0.59594493  0.40415640  1.0
  C  C127  1  0.41019790  0.62170379  0.43140604  1.0
  C  C128  1  0.44436296  0.59925589  0.45804073  1.0
  C  C129  1  0.42435961  0.55109185  0.45749737  1.0
  C  C130  1  0.36971473  0.52586583  0.43111028  1.0
  C  C131  1  0.33567088  0.54820797  0.40427484  1.0
  C  C132  1  0.45946178  0.52789846  0.48284930  1.0
  C  C133  1  0.51480604  0.55249147  0.50794080  1.0
  C  C134  1  0.55081775  0.52852603  0.53196423  1.0
  C  C135  1  0.53145823  0.47991000  0.53080073  1.0
  C  C136  1  0.47566127  0.45578319  0.50647963  1.0
  C  C137  1  0.43961352  0.47980707  0.48250054  1.0
  C  C138  1  0.56831288  0.45510882  0.55340093  1.0
  C  C139  1  0.62389406  0.47956932  0.57791566  1.0
  C  C140  1  0.66162527  0.45415011  0.59932498  1.0
  C  C141  1  0.64386687  0.40412131  0.59597608  1.0
  C  C142  1  0.58789603  0.37999934  0.57206451  1.0
  C  C143  1  0.55001192  0.40560222  0.55091690  1.0
  C  C144  1  0.14386687  0.59594493  0.40415641  1.0
  C  C145  1  0.17105858  0.56791517  0.42871756  1.0
  C  C146  1  0.13510225  0.54665302  0.45541151  1.0
  C  C147  1  0.07194521  0.55353792  0.45761964  1.0
  C  C148  1  0.04480247  0.58245210  0.43393860  1.0
  C  C149  1  0.08076712  0.60352273  0.40703961  1.0
  C  C150  1  0.03598902  0.53090986  0.48299982  1.0
  C  C151  1  0.06322991  0.50083473  0.50535888  1.0
  C  C152  1  0.02726155  0.47684058  0.52938086  1.0
  C  C153  1  0.96403014  0.48289653  0.53095001  1.0
  C  C154  1  0.93683421  0.51370776  0.50937484  1.0
  C  C155  1  0.97284214  0.53775800  0.48539706  1.0
  C  C156  1  0.92801152  0.45754193  0.55352253  1.0
  C  C157  1  0.95546525  0.42703656  0.57528994  1.0
  C  C158  1  0.91953945  0.40042224  0.59663953  1.0
  C  C159  1  0.85613314  0.40412131  0.59597607  1.0
  C  C160  1  0.82867483  0.43522618  0.57482487  1.0
  C  C161  1  0.86464730  0.46209448  0.55374051  1.0
  C  C162  1  0.85613459  0.40412200  0.80824574  1.0
  C  C163  1  0.84204194  0.45699134  0.85259803  1.0
  C  C164  1  0.87609330  0.47956979  0.90175160  1.0
  C  C165  1  0.92417149  0.44919253  0.90655797  1.0
  C  C166  1  0.93760403  0.39588261  0.86258568  1.0
  C  C167  1  0.90368319  0.37339920  0.81333127  1.0
  C  C168  1  0.95917019  0.47250467  0.95516784  1.0
  C  C169  1  0.94650690  0.52636702  0.99843361  1.0
  C  C170  1  0.98247277  0.55038476  0.04645079  1.0
  C  C171  1  0.03115267  0.52050808  0.05111549  1.0
  C  C172  1  0.04325195  0.46630794  0.00822392  1.0
  C  C173  1  0.00721677  0.44227016  0.96021356  1.0
  C  C174  1  0.06813413  0.54516239  0.09843660  1.0
  C  C175  1  0.05563300  0.59924349  0.14130513  1.0
  C  C176  1  0.09341444  0.62460420  0.18810156  1.0
  C  C177  1  0.14386542  0.59594425  0.19188675  1.0
  C  C178  1  0.15594586  0.54156040  0.14930236  1.0
  C  C179  1  0.11794536  0.51609235  0.10262558  1.0
  C  C180  1  0.64386542  0.40412199  0.80824573  1.0
  C  C181  1  0.66827091  0.41439635  0.85908361  1.0
  C  C182  1  0.63318937  0.44122973  0.90758932  1.0
  C  C183  1  0.57372570  0.45787772  0.90523555  1.0
  C  C184  1  0.54965180  0.44851968  0.85457109  1.0
  C  C185  1  0.58467787  0.42147133  0.80601174  1.0
  C  C186  1  0.53821146  0.48331921  0.95352120  1.0
  C  C187  1  0.56198443  0.49129544  0.00377366  1.0
  C  C188  1  0.52601953  0.51530913  0.05179145  1.0
  C  C189  1  0.46624283  0.53126542  0.04947756  1.0
  C  C190  1  0.44275688  0.52409544  0.99942512  1.0
  C  C191  1  0.47877648  0.50012202  0.95140495  1.0
  C  C192  1  0.42977908  0.55378142  0.09712425  1.0
  C  C193  1  0.45359726  0.56111985  0.14710989  1.0
  C  C194  1  0.41682252  0.58232263  0.19453941  1.0
  C  C195  1  0.35613458  0.59594425  0.19188675  1.0
  C  C196  1  0.33250733  0.58925198  0.14204077  1.0
  C  C197  1  0.36941051  0.56831621  0.09467391  1.0
  O  O198  1  0.30179204  0.66450969  0.40846413  1.0
  O  O199  1  0.30179204  0.74395253  0.33559032  1.0
  O  O200  1  0.30179204  0.59164156  0.25615311  1.0
  O  O201  1  0.30179205  0.59163684  0.33559269  1.0
  O  O202  1  0.30179204  0.66451354  0.25615197  1.0
  O  O203  1  0.30179204  0.74395339  0.40846290  1.0
  O  O204  1  0.19820796  0.66450970  0.40846414  1.0
  O  O205  1  0.19820795  0.74395253  0.33559032  1.0
  O  O206  1  0.19820796  0.59164156  0.25615311  1.0
  O  O207  1  0.19820796  0.59163684  0.33559269  1.0
  O  O208  1  0.19820796  0.66451355  0.25615198  1.0
  O  O209  1  0.19820795  0.74395340  0.40846290  1.0
  O  O210  1  0.25000413  0.66670092  0.33336759  1.0
  O  O211  1  0.80179204  0.33555655  0.59166835  1.0
  O  O212  1  0.80179205  0.25611371  0.66454216  1.0
  O  O213  1  0.80179204  0.40842468  0.74397937  1.0
  O  O214  1  0.80179204  0.40842940  0.66453979  1.0
  O  O215  1  0.80179205  0.33555270  0.74398051  1.0
  O  O216  1  0.80179205  0.25611284  0.59166958  1.0
  O  O217  1  0.69820796  0.33555656  0.59166835  1.0
  O  O218  1  0.69820796  0.25611371  0.66454216  1.0
  O  O219  1  0.69820796  0.40842468  0.74397937  1.0
  O  O220  1  0.69820796  0.40842940  0.66453979  1.0
  O  O221  1  0.69820796  0.33555270  0.74398051  1.0
  O  O222  1  0.69820796  0.25611285  0.59166958  1.0
  O  O223  1  0.75000413  0.33333333  0.66666667  1.0
