# generated using pymatgen
data_Al3H36C60O13
_symmetry_space_group_name_H-M   'P 1'
_cell_length_a   24.20642122
_cell_length_b   30.52484997
_cell_length_c   30.52452354
_cell_angle_alpha   119.99964675
_cell_angle_beta   90.00000113
_cell_angle_gamma   89.99999988
_symmetry_Int_Tables_number   1
_chemical_formula_structural   Al3H36C60O13
_chemical_formula_sum   'Al6 H72 C120 O26'
_cell_volume   19532.83114009
_cell_formula_units_Z   2
loop_
 _symmetry_equiv_pos_site_id
 _symmetry_equiv_pos_as_xyz
  1  'x, y, z'
loop_
 _atom_site_type_symbol
 _atom_site_label
 _atom_site_symmetry_multiplicity
 _atom_site_fract_x
 _atom_site_fract_y
 _atom_site_fract_z
 _atom_site_occupancy
  Al  Al0  1  0.74999587  0.60098594  0.30049002  1.0
  Al  Al1  1  0.74999587  0.69940780  0.30048921  1.0
  Al  Al2  1  0.74999587  0.69940627  0.39891423  1.0
  Al  Al3  1  0.24999588  0.39888159  0.69944375  1.0
  Al  Al4  1  0.24999588  0.30045973  0.69944456  1.0
  Al  Al5  1  0.24999588  0.30046126  0.60101954  1.0
  H  H6  1  0.21799245  0.43175678  0.86429947  1.0
  H  H7  1  0.15504564  0.47805266  0.94758391  1.0
  H  H8  1  0.99742174  0.43069136  0.84757630  1.0
  H  H9  1  0.06038816  0.38398412  0.76428513  1.0
  H  H10  1  0.10988102  0.50866762  0.00756962  1.0
  H  H11  1  0.04720093  0.55040056  0.09121344  1.0
  H  H12  1  0.88920018  0.50553819  0.99185275  1.0
  H  H13  1  0.95191881  0.46383234  0.90821461  1.0
  H  H14  1  0.00223485  0.58022261  0.15126631  1.0
  H  H15  1  0.94000683  0.61751452  0.23492802  1.0
  H  H16  1  0.78150310  0.56952332  0.13616382  1.0
  H  H17  1  0.84379153  0.53273710  0.05252211  1.0
  H  H18  1  0.70505972  0.53016762  0.14376783  1.0
  H  H19  1  0.63949674  0.48564249  0.06212859  1.0
  H  H20  1  0.50663221  0.60961508  0.14656473  1.0
  H  H21  1  0.57244731  0.65440539  0.22806447  1.0
  H  H22  1  0.59399490  0.45530032  0.00235494  1.0
  H  H23  1  0.53135992  0.41351948  0.91868275  1.0
  H  H24  1  0.39685778  0.53571208  0.00326482  1.0
  H  H25  1  0.45951255  0.57746032  0.08694312  1.0
  H  H26  1  0.48650283  0.38360271  0.85856134  1.0
  H  H27  1  0.42682122  0.34456874  0.77329830  1.0
  H  H28  1  0.29378922  0.46872017  0.85604305  1.0
  H  H29  1  0.35323823  0.50739576  0.94147035  1.0
  H  H30  1  0.32314005  0.35247460  0.51404126  1.0
  H  H31  1  0.38168212  0.39802693  0.47353910  1.0
  H  H32  1  0.45520870  0.50887984  0.63151503  1.0
  H  H33  1  0.39702344  0.46300030  0.67193344  1.0
  H  H34  1  0.42621917  0.42861789  0.44374968  1.0
  H  H35  1  0.48899901  0.47033500  0.40188570  1.0
  H  H36  1  0.56096063  0.58311112  0.55991675  1.0
  H  H37  1  0.49813523  0.54138628  0.60176290  1.0
  H  H38  1  0.53417710  0.50015374  0.37178489  1.0
  H  H39  1  0.60071814  0.53813836  0.32882020  1.0
  H  H40  1  0.67628214  0.64861403  0.48590345  1.0
  H  H41  1  0.60925604  0.61096929  0.52892099  1.0
  H  H42  1  0.92900839  0.57534844  0.34726960  1.0
  H  H43  1  0.99378414  0.53845902  0.39251454  1.0
  H  H44  1  0.85824752  0.57529958  0.51370764  1.0
  H  H45  1  0.79325658  0.61177384  0.46816380  1.0
  H  H46  1  0.03905312  0.50909431  0.42306993  1.0
  H  H47  1  0.10175340  0.46718509  0.46479184  1.0
  H  H48  1  0.96787194  0.50594657  0.58774892  1.0
  H  H49  1  0.90520002  0.54788080  0.54601563  1.0
  H  H50  1  0.14670547  0.43695394  0.49462237  1.0
  H  H51  1  0.20720884  0.39049178  0.53290640  1.0
  H  H52  1  0.07196228  0.42542726  0.65380870  1.0
  H  H53  1  0.01175399  0.47239427  0.61582596  1.0
  H  H54  1  0.06241630  0.23343489  0.63531219  1.0
  H  H55  1  0.99895502  0.15047483  0.58923840  1.0
  H  H56  1  0.15218732  0.05499725  0.50239067  1.0
  H  H57  1  0.21575064  0.13791220  0.54884023  1.0
  H  H58  1  0.95387022  0.09043955  0.55858900  1.0
  H  H59  1  0.89114231  0.00682670  0.51687676  1.0
  H  H60  1  0.04330924  0.91113517  0.42782732  1.0
  H  H61  1  0.10601232  0.99478219  0.46953983  1.0
  H  H62  1  0.84612921  0.94680404  0.48707504  1.0
  H  H63  1  0.78434169  0.86286626  0.44959307  1.0
  H  H64  1  0.93693622  0.76599306  0.36327074  1.0
  H  H65  1  0.99855935  0.85005221  0.40034407  1.0
  H  H66  1  0.56190563  0.76611149  0.36652920  1.0
  H  H67  1  0.49857823  0.84915574  0.41266598  1.0
  H  H68  1  0.65288788  0.94531085  0.49572591  1.0
  H  H69  1  0.71630570  0.86230439  0.44920736  1.0
  H  H70  1  0.45351182  0.90920258  0.44332199  1.0
  H  H71  1  0.39078117  0.99281371  0.48503374  1.0
  H  H72  1  0.54408659  0.08922120  0.57033031  1.0
  H  H73  1  0.60679292  0.00557623  0.52861937  1.0
  H  H74  1  0.34576196  0.05283253  0.51483355  1.0
  H  H75  1  0.28384366  0.13668807  0.55225484  1.0
  H  H76  1  0.43747987  0.23421635  0.63477114  1.0
  H  H77  1  0.49924749  0.15024806  0.59776728  1.0
  C  C78  1  0.67988224  0.61985349  0.38004468  1.0
  C  C79  1  0.67988224  0.61985567  0.23981099  1.0
  C  C80  1  0.67988224  0.76009084  0.38004433  1.0
  C  C81  1  0.82011776  0.61985349  0.38004468  1.0
  C  C82  1  0.82011776  0.61985567  0.23981099  1.0
  C  C83  1  0.82011776  0.76009084  0.38004433  1.0
  C  C84  1  0.17988225  0.38001404  0.61988908  1.0
  C  C85  1  0.17988225  0.38001185  0.76012277  1.0
  C  C86  1  0.17988225  0.23977669  0.61988944  1.0
  C  C87  1  0.32011777  0.38001404  0.61988909  1.0
  C  C88  1  0.32011777  0.38001185  0.76012277  1.0
  C  C89  1  0.32011777  0.23977669  0.61988944  1.0
  C  C90  1  0.14386599  0.40402278  0.80814468  1.0
  C  C91  1  0.17107920  0.43143129  0.86074883  1.0
  C  C92  1  0.13493921  0.45806240  0.90858941  1.0
  C  C93  1  0.07157053  0.45735636  0.90377982  1.0
  C  C94  1  0.04434648  0.43080924  0.85113375  1.0
  C  C95  1  0.08050823  0.40397765  0.80328808  1.0
  C  C96  1  0.03552130  0.48270672  0.95172955  1.0
  C  C97  1  0.06292757  0.50795998  0.00426747  1.0
  C  C98  1  0.02695842  0.53198377  0.05228309  1.0
  C  C99  1  0.96356496  0.53065880  0.04769465  1.0
  C  C100  1  0.93615208  0.50617505  0.99517210  1.0
  C  C101  1  0.97215737  0.48219558  0.94714242  1.0
  C  C102  1  0.92764081  0.55326110  0.09568121  1.0
  C  C103  1  0.95529438  0.57793854  0.14807939  1.0
  C  C104  1  0.91954692  0.59935203  0.19615547  1.0
  C  C105  1  0.85613402  0.59584475  0.19178908  1.0
  C  C106  1  0.82843472  0.57176962  0.13938172  1.0
  C  C107  1  0.86421119  0.55061760  0.09130579  1.0
  C  C108  1  0.64386598  0.59584475  0.19178909  1.0
  C  C109  1  0.66291412  0.54712733  0.14432000  1.0
  C  C110  1  0.62524768  0.52152052  0.09743934  1.0
  C  C111  1  0.56846912  0.54460875  0.09810430  1.0
  C  C112  1  0.54890854  0.59278442  0.14593075  1.0
  C  C113  1  0.58670830  0.61851725  0.19274634  1.0
  C  C114  1  0.53164031  0.51976359  0.05064483  1.0
  C  C115  1  0.55208322  0.47241907  0.00248625  1.0
  C  C116  1  0.51610009  0.44838703  0.95447941  1.0
  C  C117  1  0.45969948  0.47179538  0.95466995  1.0
  C  C118  1  0.43881218  0.51863290  0.00308847  1.0
  C  C119  1  0.47479909  0.54263009  0.05112971  1.0
  C  C120  1  0.42456620  0.44868953  0.90618606  1.0
  C  C121  1  0.44553069  0.40169906  0.85799474  1.0
  C  C122  1  0.41125452  0.37927503  0.80899343  1.0
  C  C123  1  0.35613402  0.40402277  0.80814467  1.0
  C  C124  1  0.33478144  0.45063844  0.85656046  1.0
  C  C125  1  0.36893331  0.47288216  0.90565805  1.0
  C  C126  1  0.35613314  0.40402393  0.59587869  1.0
  C  C127  1  0.35132422  0.38566193  0.53900143  1.0
  C  C128  1  0.38490615  0.41184485  0.51573505  1.0
  C  C129  1  0.42320902  0.45647348  0.54941061  1.0
  C  C130  1  0.42721090  0.47552223  0.60650221  1.0
  C  C131  1  0.39379366  0.44917224  0.62972385  1.0
  C  C132  1  0.45797604  0.48156577  0.52574681  1.0
  C  C133  1  0.45495574  0.46144007  0.46841832  1.0
  C  C134  1  0.49092544  0.48543094  0.44439390  1.0
  C  C135  1  0.52996653  0.52951258  0.47774999  1.0
  C  C136  1  0.53230185  0.55022872  0.53521864  1.0
  C  C137  1  0.49625827  0.52625285  0.55924837  1.0
  C  C138  1  0.56717981  0.55239061  0.45345218  1.0
  C  C139  1  0.56442270  0.53170850  0.39602805  1.0
  C  C140  1  0.60266756  0.55351576  0.37132981  1.0
  C  C141  1  0.64386687  0.59584360  0.40405508  1.0
  C  C142  1  0.64609891  0.61702396  0.46162766  1.0
  C  C143  1  0.60759736  0.59539800  0.48636389  1.0
  C  C144  1  0.85613313  0.59584360  0.40405508  1.0
  C  C145  1  0.91391064  0.57523038  0.38259784  1.0
  C  C146  1  0.95114397  0.55408016  0.40860069  1.0
  C  C147  1  0.93060147  0.55365980  0.45614006  1.0
  C  C148  1  0.87324410  0.57519838  0.47822335  1.0
  C  C149  1  0.83590792  0.59614884  0.45206666  1.0
  C  C150  1  0.96726217  0.53109372  0.48113920  1.0
  C  C151  1  0.02391501  0.50834127  0.45806233  1.0
  C  C152  1  0.05994647  0.48435313  0.48205063  1.0
  C  C153  1  0.03922473  0.48308169  0.52908837  1.0
  C  C154  1  0.98298432  0.50661016  0.55270142  1.0
  C  C155  1  0.94697608  0.53065987  0.52872331  1.0
  C  C156  1  0.07450254  0.45766294  0.55206261  1.0
  C  C157  1  0.13082310  0.43446983  0.52845877  1.0
  C  C158  1  0.16558589  0.40775452  0.55043872  1.0
  C  C159  1  0.14386688  0.40402393  0.59587869  1.0
  C  C160  1  0.08784378  0.42784209  0.61994011  1.0
  C  C161  1  0.05322596  0.45482811  0.59812161  1.0
  C  C162  1  0.14386542  0.19175427  0.59587801  1.0
  C  C163  1  0.08152896  0.19546462  0.60713165  1.0
  C  C164  1  0.04505971  0.14783158  0.58064268  1.0
  C  C165  1  0.07095481  0.09650695  0.54280998  1.0
  C  C166  1  0.13311663  0.09294153  0.53076566  1.0
  C  C167  1  0.16963305  0.14056367  0.55744413  1.0
  C  C168  1  0.03467874  0.04870038  0.51755756  1.0
  C  C169  1  0.97287345  0.05226434  0.53082051  1.0
  C  C170  1  0.93684367  0.00428736  0.50682293  1.0
  C  C171  1  0.96270730  0.95274578  0.46961205  1.0
  C  C172  1  0.02430909  0.94929027  0.45566459  1.0
  C  C173  1  0.06032791  0.99731093  0.47963820  1.0
  C  C174  1  0.92704293  0.90459640  0.44689765  1.0
  C  C175  1  0.86542052  0.90834061  0.46076423  1.0
  C  C176  1  0.82991447  0.86011326  0.43924658  1.0
  C  C177  1  0.85613458  0.80811326  0.40405576  1.0
  C  C178  1  0.91763010  0.80442924  0.38962188  1.0
  C  C179  1  0.95306088  0.85272204  0.41092308  1.0
  C  C180  1  0.64386542  0.80811326  0.40405576  1.0
  C  C181  1  0.58127300  0.80424194  0.39391603  1.0
  C  C182  1  0.54488164  0.85192396  0.42044206  1.0
  C  C183  1  0.57111349  0.90346036  0.45719852  1.0
  C  C184  1  0.63355644  0.90720258  0.46814168  1.0
  C  C185  1  0.66998928  0.85952788  0.44142342  1.0
  C  C186  1  0.53487675  0.95129167  0.48247048  1.0
  C  C187  1  0.47275479  0.94752856  0.47029145  1.0
  C  C188  1  0.43672527  0.99550571  0.49428998  1.0
  C  C189  1  0.46290439  0.04724568  0.53041581  1.0
  C  C190  1  0.52484441  0.05091390  0.54329105  1.0
  C  C191  1  0.56086429  0.00289391  0.51931770  1.0
  C  C192  1  0.42720033  0.09537011  0.55311008  1.0
  C  C193  1  0.36524630  0.09141735  0.54032205  1.0
  C  C194  1  0.32966459  0.13959712  0.56180477  1.0
  C  C195  1  0.35613459  0.19175427  0.59587801  1.0
  C  C196  1  0.41797915  0.19565778  0.60924172  1.0
  C  C197  1  0.45349286  0.14741715  0.58797991  1.0
  O  O198  1  0.69820796  0.59153586  0.33549030  1.0
  O  O199  1  0.69820796  0.66440968  0.25604747  1.0
  O  O200  1  0.69820796  0.74384689  0.40835844  1.0
  O  O201  1  0.69820796  0.66440731  0.40836316  1.0
  O  O202  1  0.69820796  0.74384803  0.33548646  1.0
  O  O203  1  0.69820796  0.59153710  0.25604660  1.0
  O  O204  1  0.80179204  0.59153586  0.33549030  1.0
  O  O205  1  0.80179204  0.66440968  0.25604747  1.0
  O  O206  1  0.80179204  0.74384689  0.40835844  1.0
  O  O207  1  0.80179204  0.66440731  0.40836316  1.0
  O  O208  1  0.80179204  0.74384803  0.33548646  1.0
  O  O209  1  0.80179204  0.59153710  0.25604661  1.0
  O  O210  1  0.74999587  0.66663241  0.33329908  1.0
  O  O211  1  0.19820797  0.40833166  0.66444345  1.0
  O  O212  1  0.19820797  0.33545785  0.74388630  1.0
  O  O213  1  0.19820796  0.25602063  0.59157532  1.0
  O  O214  1  0.19820796  0.33546022  0.59157061  1.0
  O  O215  1  0.19820797  0.25601950  0.66444731  1.0
  O  O216  1  0.19820797  0.40833043  0.74388716  1.0
  O  O217  1  0.30179205  0.40833166  0.66444346  1.0
  O  O218  1  0.30179205  0.33545785  0.74388630  1.0
  O  O219  1  0.30179205  0.25602063  0.59157532  1.0
  O  O220  1  0.30179205  0.33546022  0.59157061  1.0
  O  O221  1  0.30179205  0.25601950  0.66444731  1.0
  O  O222  1  0.30179205  0.40833043  0.74388716  1.0
  O  O223  1  0.24999588  0.33333333  0.66666667  1.0
