# generated using pymatgen
data_Tb2H6C18(SO4)3
_symmetry_space_group_name_H-M   'P 1'
_cell_length_a   11.64040000
_cell_length_b   17.37780000
_cell_length_c   18.34750000
_cell_angle_alpha   110.41300000
_cell_angle_beta   90.00000000
_cell_angle_gamma   90.00000000
_symmetry_Int_Tables_number   1
_chemical_formula_structural   Tb2H6C18(SO4)3
_chemical_formula_sum   'Tb8 H24 C72 S12 O48'
_cell_volume   3478.34942906
_cell_formula_units_Z   4
loop_
 _symmetry_equiv_pos_site_id
 _symmetry_equiv_pos_as_xyz
  1  'x, y, z'
loop_
 _atom_site_type_symbol
 _atom_site_label
 _atom_site_symmetry_multiplicity
 _atom_site_fract_x
 _atom_site_fract_y
 _atom_site_fract_z
 _atom_site_occupancy
  Tb  Tb0  1  0.08309000  0.99897000  0.59459000  1
  Tb  Tb1  1  0.43074000  0.50234000  0.39886000  1
  Tb  Tb2  1  0.08309000  0.00103000  0.90541000  1
  Tb  Tb3  1  0.43074000  0.49766000  0.10114000  1
  Tb  Tb4  1  0.91691000  0.00103000  0.40541000  1
  Tb  Tb5  1  0.56926000  0.49766000  0.60114000  1
  Tb  Tb6  1  0.91691000  0.99897000  0.09459000  1
  Tb  Tb7  1  0.56926000  0.50234000  0.89886000  1
  H  H8  1  0.21580000  0.83720000  0.24890000  1
  H  H9  1  0.33750000  0.71610000  0.19290000  1
  H  H10  1  0.94820000  0.79990000  0.57540000  1
  H  H11  1  0.38150000  0.69550000  0.71560000  1
  H  H12  1  0.85270000  0.67950000  0.58560000  1
  H  H13  1  0.26950000  0.81880000  0.78640000  1
  H  H14  1  0.21580000  0.16280000  0.25110000  1
  H  H15  1  0.33750000  0.28390000  0.30710000  1
  H  H16  1  0.94820000  0.20010000  0.92460000  1
  H  H17  1  0.38150000  0.30450000  0.78440000  1
  H  H18  1  0.85270000  0.32050000  0.91440000  1
  H  H19  1  0.26950000  0.18120000  0.71360000  1
  H  H20  1  0.78420000  0.16280000  0.75110000  1
  H  H21  1  0.66250000  0.28390000  0.80710000  1
  H  H22  1  0.05180000  0.20010000  0.42460000  1
  H  H23  1  0.61850000  0.30450000  0.28440000  1
  H  H24  1  0.14730000  0.32050000  0.41440000  1
  H  H25  1  0.73050000  0.18120000  0.21360000  1
  H  H26  1  0.78420000  0.83720000  0.74890000  1
  H  H27  1  0.66250000  0.71610000  0.69290000  1
  H  H28  1  0.05180000  0.79990000  0.07540000  1
  H  H29  1  0.61850000  0.69550000  0.21560000  1
  H  H30  1  0.14730000  0.67950000  0.08560000  1
  H  H31  1  0.73050000  0.81880000  0.28640000  1
  C  C32  1  0.11180000  0.88370000  0.70560000  1
  C  C33  1  0.41260000  0.62510000  0.28350000  1
  C  C34  1  0.19270000  0.81350000  0.68500000  1
  C  C35  1  0.65990000  0.61060000  0.49420000  1
  C  C36  1  0.34640000  0.70160000  0.29830000  1
  C  C37  1  0.83900000  0.79860000  0.48760000  1
  C  C38  1  0.24610000  0.80700000  0.27740000  1
  C  C39  1  0.31540000  0.73650000  0.24490000  1
  C  C40  1  0.16110000  0.89640000  0.40790000  1
  C  C41  1  0.74190000  0.67720000  0.49860000  1
  C  C42  1  0.22860000  0.82580000  0.35520000  1
  C  C43  1  0.86900000  0.87090000  0.46750000  1
  C  C44  1  0.88650000  0.77370000  0.54450000  1
  C  C45  1  0.35300000  0.61910000  0.55150000  1
  C  C46  1  0.32910000  0.71980000  0.69210000  1
  C  C47  1  0.83120000  0.70450000  0.55030000  1
  C  C48  1  0.30620000  0.69110000  0.61420000  1
  C  C49  1  0.26410000  0.79090000  0.73310000  1
  C  C50  1  0.11180000  0.11630000  0.79440000  1
  C  C51  1  0.41260000  0.37490000  0.21650000  1
  C  C52  1  0.19270000  0.18650000  0.81500000  1
  C  C53  1  0.65990000  0.38940000  0.00580000  1
  C  C54  1  0.34640000  0.29840000  0.20170000  1
  C  C55  1  0.83900000  0.20140000  0.01240000  1
  C  C56  1  0.24610000  0.19300000  0.22260000  1
  C  C57  1  0.31540000  0.26350000  0.25510000  1
  C  C58  1  0.16110000  0.10360000  0.09210000  1
  C  C59  1  0.74190000  0.32280000  0.00140000  1
  C  C60  1  0.22860000  0.17420000  0.14480000  1
  C  C61  1  0.86900000  0.12910000  0.03250000  1
  C  C62  1  0.88650000  0.22630000  0.95550000  1
  C  C63  1  0.35300000  0.38090000  0.94850000  1
  C  C64  1  0.32910000  0.28020000  0.80790000  1
  C  C65  1  0.83120000  0.29550000  0.94970000  1
  C  C66  1  0.30620000  0.30890000  0.88580000  1
  C  C67  1  0.26410000  0.20910000  0.76690000  1
  C  C68  1  0.88820000  0.11630000  0.29440000  1
  C  C69  1  0.58740000  0.37490000  0.71650000  1
  C  C70  1  0.80730000  0.18650000  0.31500000  1
  C  C71  1  0.34010000  0.38940000  0.50580000  1
  C  C72  1  0.65360000  0.29840000  0.70170000  1
  C  C73  1  0.16100000  0.20140000  0.51240000  1
  C  C74  1  0.75390000  0.19300000  0.72260000  1
  C  C75  1  0.68460000  0.26350000  0.75510000  1
  C  C76  1  0.83890000  0.10360000  0.59210000  1
  C  C77  1  0.25810000  0.32280000  0.50140000  1
  C  C78  1  0.77140000  0.17420000  0.64480000  1
  C  C79  1  0.13100000  0.12910000  0.53250000  1
  C  C80  1  0.11350000  0.22630000  0.45550000  1
  C  C81  1  0.64700000  0.38090000  0.44850000  1
  C  C82  1  0.67090000  0.28020000  0.30790000  1
  C  C83  1  0.16880000  0.29550000  0.44970000  1
  C  C84  1  0.69380000  0.30890000  0.38580000  1
  C  C85  1  0.73590000  0.20910000  0.26690000  1
  C  C86  1  0.88820000  0.88370000  0.20560000  1
  C  C87  1  0.58740000  0.62510000  0.78350000  1
  C  C88  1  0.80730000  0.81350000  0.18500000  1
  C  C89  1  0.34010000  0.61060000  0.99420000  1
  C  C90  1  0.65360000  0.70160000  0.79830000  1
  C  C91  1  0.16100000  0.79860000  0.98760000  1
  C  C92  1  0.75390000  0.80700000  0.77740000  1
  C  C93  1  0.68460000  0.73650000  0.74490000  1
  C  C94  1  0.83890000  0.89640000  0.90790000  1
  C  C95  1  0.25810000  0.67720000  0.99860000  1
  C  C96  1  0.77140000  0.82580000  0.85520000  1
  C  C97  1  0.13100000  0.87090000  0.96750000  1
  C  C98  1  0.11350000  0.77370000  0.04450000  1
  C  C99  1  0.64700000  0.61910000  0.05150000  1
  C  C100  1  0.67090000  0.71980000  0.19210000  1
  C  C101  1  0.16880000  0.70450000  0.05030000  1
  C  C102  1  0.69380000  0.69110000  0.11420000  1
  C  C103  1  0.73590000  0.79090000  0.23310000  1
  S  S104  1  0.20477000  0.74964000  0.58962000  1
  S  S105  1  0.29299000  0.75588000  0.38966000  1
  S  S106  1  0.72637000  0.73601000  0.44074000  1
  S  S107  1  0.20477000  0.25036000  0.91038000  1
  S  S108  1  0.29299000  0.24412000  0.11034000  1
  S  S109  1  0.72637000  0.26399000  0.05926000  1
  S  S110  1  0.79523000  0.25036000  0.41038000  1
  S  S111  1  0.70701000  0.24412000  0.61034000  1
  S  S112  1  0.27363000  0.26399000  0.55926000  1
  S  S113  1  0.79523000  0.74964000  0.08962000  1
  S  S114  1  0.70701000  0.75588000  0.88966000  1
  S  S115  1  0.27363000  0.73601000  0.94074000  1
  O  O116  1  0.06610000  0.89891000  0.64839000  1
  O  O117  1  0.41700000  0.59519000  0.33598000  1
  O  O118  1  0.58600000  0.59239000  0.44124000  1
  O  O119  1  0.46300000  0.59609000  0.21837000  1
  O  O120  1  0.09040000  0.92190000  0.77474000  1
  O  O121  1  0.94730000  0.91974000  0.50511000  1
  O  O122  1  0.09160000  0.92936000  0.37538000  1
  O  O123  1  0.43140000  0.57582000  0.56608000  1
  O  O124  1  0.67150000  0.57896000  0.54606000  1
  O  O125  1  0.17940000  0.91769000  0.48026000  1
  O  O126  1  0.31310000  0.60408000  0.48409000  1
  O  O127  1  0.81680000  0.88308000  0.41230000  1
  O  O128  1  0.06610000  0.10109000  0.85161000  1
  O  O129  1  0.41700000  0.40481000  0.16402000  1
  O  O130  1  0.58600000  0.40761000  0.05876000  1
  O  O131  1  0.46300000  0.40391000  0.28163000  1
  O  O132  1  0.09040000  0.07810000  0.72526000  1
  O  O133  1  0.94730000  0.08026000  0.99489000  1
  O  O134  1  0.09160000  0.07064000  0.12462000  1
  O  O135  1  0.43140000  0.42418000  0.93392000  1
  O  O136  1  0.67150000  0.42104000  0.95394000  1
  O  O137  1  0.17940000  0.08231000  0.01974000  1
  O  O138  1  0.31310000  0.39592000  0.01591000  1
  O  O139  1  0.81680000  0.11692000  0.08770000  1
  O  O140  1  0.93390000  0.10109000  0.35161000  1
  O  O141  1  0.58300000  0.40481000  0.66402000  1
  O  O142  1  0.41400000  0.40761000  0.55876000  1
  O  O143  1  0.53700000  0.40391000  0.78163000  1
  O  O144  1  0.90960000  0.07810000  0.22526000  1
  O  O145  1  0.05270000  0.08026000  0.49489000  1
  O  O146  1  0.90840000  0.07064000  0.62462000  1
  O  O147  1  0.56860000  0.42418000  0.43392000  1
  O  O148  1  0.32850000  0.42104000  0.45394000  1
  O  O149  1  0.82060000  0.08231000  0.51974000  1
  O  O150  1  0.68690000  0.39592000  0.51591000  1
  O  O151  1  0.18320000  0.11692000  0.58770000  1
  O  O152  1  0.93390000  0.89891000  0.14839000  1
  O  O153  1  0.58300000  0.59519000  0.83598000  1
  O  O154  1  0.41400000  0.59239000  0.94124000  1
  O  O155  1  0.53700000  0.59609000  0.71837000  1
  O  O156  1  0.90960000  0.92190000  0.27474000  1
  O  O157  1  0.05270000  0.91974000  0.00511000  1
  O  O158  1  0.90840000  0.92936000  0.87538000  1
  O  O159  1  0.56860000  0.57582000  0.06608000  1
  O  O160  1  0.32850000  0.57896000  0.04606000  1
  O  O161  1  0.82060000  0.91769000  0.98026000  1
  O  O162  1  0.68690000  0.60408000  0.98409000  1
  O  O163  1  0.18320000  0.88308000  0.91230000  1
