# generated using pymatgen
data_ZnH12C15(NO2)2
_symmetry_space_group_name_H-M   'P 1'
_cell_length_a   12.32740000
_cell_length_b   24.74720000
_cell_length_c   30.54130000
_cell_angle_alpha   90.00000000
_cell_angle_beta   90.00000000
_cell_angle_gamma   98.23200000
_symmetry_Int_Tables_number   1
_chemical_formula_structural   ZnH12C15(NO2)2
_chemical_formula_sum   'Zn16 H192 C240 N32 O64'
_cell_volume   9221.19218663
_cell_formula_units_Z   16
loop_
 _symmetry_equiv_pos_site_id
 _symmetry_equiv_pos_as_xyz
  1  'x, y, z'
loop_
 _atom_site_type_symbol
 _atom_site_label
 _atom_site_symmetry_multiplicity
 _atom_site_fract_x
 _atom_site_fract_y
 _atom_site_fract_z
 _atom_site_occupancy
  Zn  Zn0  1  0.42413000  0.79867000  0.73426000  1
  Zn  Zn1  1  0.62760000  0.75161000  0.72561000  1
  Zn  Zn2  1  0.21708000  0.93788000  0.85266000  1
  Zn  Zn3  1  0.69285000  0.91863000  0.13037000  1
  Zn  Zn4  1  0.07587000  0.70133000  0.23426000  1
  Zn  Zn5  1  0.87240000  0.74839000  0.22561000  1
  Zn  Zn6  1  0.28292000  0.56212000  0.35266000  1
  Zn  Zn7  1  0.80715000  0.58137000  0.63037000  1
  Zn  Zn8  1  0.57587000  0.20133000  0.26574000  1
  Zn  Zn9  1  0.37240000  0.24839000  0.27439000  1
  Zn  Zn10  1  0.78292000  0.06212000  0.14734000  1
  Zn  Zn11  1  0.30715000  0.08137000  0.86963000  1
  Zn  Zn12  1  0.92413000  0.29867000  0.76574000  1
  Zn  Zn13  1  0.12760000  0.25161000  0.77439000  1
  Zn  Zn14  1  0.71708000  0.43788000  0.64734000  1
  Zn  Zn15  1  0.19285000  0.41863000  0.36963000  1
  H  H16  1  0.29010000  0.83830000  0.80770000  1
  H  H17  1  0.36770000  0.89020000  0.78820000  1
  H  H18  1  0.17630000  0.78750000  0.70680000  1
  H  H19  1  0.17350000  0.77640000  0.75850000  1
  H  H20  1  0.37040000  0.90860000  0.70940000  1
  H  H21  1  0.29540000  0.86840000  0.67700000  1
  H  H22  1  0.09270000  0.83570000  0.80680000  1
  H  H23  1  0.03990000  0.88650000  0.78800000  1
  H  H24  1  0.15790000  0.96530000  0.75770000  1
  H  H25  1  0.28810000  0.96660000  0.75780000  1
  H  H26  1  0.10440000  0.86570000  0.67770000  1
  H  H27  1  0.04830000  0.90510000  0.70940000  1
  H  H28  1  0.67270000  0.64660000  0.69020000  1
  H  H29  1  0.74180000  0.69050000  0.65870000  1
  H  H30  1  0.77950000  0.70570000  0.78930000  1
  H  H31  1  0.69510000  0.65630000  0.77000000  1
  H  H32  1  0.86890000  0.76490000  0.68920000  1
  H  H33  1  0.88340000  0.77100000  0.74120000  1
  H  H34  1  0.76050000  0.58210000  0.73210000  1
  H  H35  1  0.89010000  0.58120000  0.72750000  1
  H  H36  1  0.99900000  0.64970000  0.67830000  1
  H  H37  1  0.93870000  0.69270000  0.65180000  1
  H  H38  1  0.01590000  0.65670000  0.75690000  1
  H  H39  1  0.97050000  0.70570000  0.78180000  1
  H  H40  1  0.47400000  0.58350000  0.75200000  1
  H  H41  1  0.46310000  0.48440000  0.76640000  1
  H  H42  1  0.36070000  0.40000000  0.77400000  1
  H  H43  1  0.07840000  0.46440000  0.76050000  1
  H  H44  1  0.09160000  0.56540000  0.74700000  1
  H  H45  1  0.19430000  0.64930000  0.73430000  1
  H  H46  1  0.72050000  0.76000000  0.86070000  1
  H  H47  1  0.76400000  0.77510000  0.93270000  1
  H  H48  1  0.71820000  0.81100000  0.00550000  1
  H  H49  1  0.44110000  0.87310000  0.02190000  1
  H  H50  1  0.38410000  0.85140000  0.95030000  1
  H  H51  1  0.43110000  0.81560000  0.87700000  1
  H  H52  1  0.57230000  0.69840000  0.59180000  1
  H  H53  1  0.57960000  0.63830000  0.52560000  1
  H  H54  1  0.51660000  0.61220000  0.45700000  1
  H  H55  1  0.28560000  0.71130000  0.46240000  1
  H  H56  1  0.27350000  0.76750000  0.52960000  1
  H  H57  1  0.33490000  0.79580000  0.59840000  1
  H  H58  1  0.92560000  0.94990000  0.84650000  1
  H  H59  1  0.73640000  0.90300000  0.84350000  1
  H  H60  1  0.54850000  0.90510000  0.84600000  1
  H  H61  1  0.59620000  0.06820000  0.86430000  1
  H  H62  1  0.78900000  0.11620000  0.87100000  1
  H  H63  1  0.97490000  0.11350000  0.87070000  1
  H  H64  1  0.20990000  0.66170000  0.30770000  1
  H  H65  1  0.13230000  0.60980000  0.28820000  1
  H  H66  1  0.32370000  0.71250000  0.20680000  1
  H  H67  1  0.32650000  0.72360000  0.25850000  1
  H  H68  1  0.12960000  0.59140000  0.20940000  1
  H  H69  1  0.20460000  0.63160000  0.17700000  1
  H  H70  1  0.40730000  0.66430000  0.30680000  1
  H  H71  1  0.46010000  0.61350000  0.28800000  1
  H  H72  1  0.34210000  0.53470000  0.25770000  1
  H  H73  1  0.21190000  0.53340000  0.25780000  1
  H  H74  1  0.39560000  0.63430000  0.17770000  1
  H  H75  1  0.45170000  0.59490000  0.20940000  1
  H  H76  1  0.82730000  0.85340000  0.19020000  1
  H  H77  1  0.75820000  0.80950000  0.15870000  1
  H  H78  1  0.72050000  0.79430000  0.28930000  1
  H  H79  1  0.80490000  0.84370000  0.27000000  1
  H  H80  1  0.63110000  0.73510000  0.18920000  1
  H  H81  1  0.61660000  0.72900000  0.24120000  1
  H  H82  1  0.73950000  0.91790000  0.23210000  1
  H  H83  1  0.60990000  0.91880000  0.22750000  1
  H  H84  1  0.50100000  0.85030000  0.17830000  1
  H  H85  1  0.56130000  0.80730000  0.15180000  1
  H  H86  1  0.48410000  0.84330000  0.25690000  1
  H  H87  1  0.52950000  0.79430000  0.28180000  1
  H  H88  1  0.02600000  0.91650000  0.25200000  1
  H  H89  1  0.03690000  0.01560000  0.26640000  1
  H  H90  1  0.13930000  0.10000000  0.27400000  1
  H  H91  1  0.42160000  0.03560000  0.26050000  1
  H  H92  1  0.40840000  0.93460000  0.24700000  1
  H  H93  1  0.30570000  0.85070000  0.23430000  1
  H  H94  1  0.77950000  0.74000000  0.36070000  1
  H  H95  1  0.73600000  0.72490000  0.43270000  1
  H  H96  1  0.78180000  0.68900000  0.50550000  1
  H  H97  1  0.05890000  0.62690000  0.52190000  1
  H  H98  1  0.11590000  0.64860000  0.45030000  1
  H  H99  1  0.06890000  0.68440000  0.37700000  1
  H  H100  1  0.92770000  0.80160000  0.09180000  1
  H  H101  1  0.92040000  0.86170000  0.02560000  1
  H  H102  1  0.98340000  0.88780000  0.95700000  1
  H  H103  1  0.21440000  0.78870000  0.96240000  1
  H  H104  1  0.22650000  0.73250000  0.02960000  1
  H  H105  1  0.16510000  0.70420000  0.09840000  1
  H  H106  1  0.57440000  0.55010000  0.34650000  1
  H  H107  1  0.76360000  0.59700000  0.34350000  1
  H  H108  1  0.95150000  0.59490000  0.34600000  1
  H  H109  1  0.90380000  0.43180000  0.36430000  1
  H  H110  1  0.71100000  0.38380000  0.37100000  1
  H  H111  1  0.52510000  0.38650000  0.37070000  1
  H  H112  1  0.70990000  0.16170000  0.19230000  1
  H  H113  1  0.63230000  0.10980000  0.21180000  1
  H  H114  1  0.82370000  0.21250000  0.29320000  1
  H  H115  1  0.82650000  0.22360000  0.24150000  1
  H  H116  1  0.62960000  0.09140000  0.29060000  1
  H  H117  1  0.70460000  0.13160000  0.32300000  1
  H  H118  1  0.90730000  0.16430000  0.19320000  1
  H  H119  1  0.96010000  0.11350000  0.21200000  1
  H  H120  1  0.84210000  0.03470000  0.24230000  1
  H  H121  1  0.71190000  0.03340000  0.24220000  1
  H  H122  1  0.89560000  0.13430000  0.32230000  1
  H  H123  1  0.95170000  0.09490000  0.29060000  1
  H  H124  1  0.32730000  0.35340000  0.30980000  1
  H  H125  1  0.25820000  0.30950000  0.34130000  1
  H  H126  1  0.22050000  0.29430000  0.21070000  1
  H  H127  1  0.30490000  0.34370000  0.23000000  1
  H  H128  1  0.13110000  0.23510000  0.31080000  1
  H  H129  1  0.11660000  0.22900000  0.25880000  1
  H  H130  1  0.23950000  0.41790000  0.26790000  1
  H  H131  1  0.10990000  0.41880000  0.27250000  1
  H  H132  1  0.00100000  0.35030000  0.32170000  1
  H  H133  1  0.06130000  0.30730000  0.34820000  1
  H  H134  1  0.98410000  0.34330000  0.24310000  1
  H  H135  1  0.02950000  0.29430000  0.21820000  1
  H  H136  1  0.52600000  0.41650000  0.24800000  1
  H  H137  1  0.53690000  0.51560000  0.23360000  1
  H  H138  1  0.63930000  0.60000000  0.22600000  1
  H  H139  1  0.92160000  0.53560000  0.23950000  1
  H  H140  1  0.90840000  0.43460000  0.25300000  1
  H  H141  1  0.80570000  0.35070000  0.26570000  1
  H  H142  1  0.27950000  0.24000000  0.13930000  1
  H  H143  1  0.23600000  0.22490000  0.06730000  1
  H  H144  1  0.28180000  0.18900000  0.99450000  1
  H  H145  1  0.55890000  0.12690000  0.97810000  1
  H  H146  1  0.61590000  0.14860000  0.04970000  1
  H  H147  1  0.56890000  0.18440000  0.12300000  1
  H  H148  1  0.42770000  0.30160000  0.40820000  1
  H  H149  1  0.42040000  0.36170000  0.47440000  1
  H  H150  1  0.48340000  0.38780000  0.54300000  1
  H  H151  1  0.71440000  0.28870000  0.53760000  1
  H  H152  1  0.72650000  0.23250000  0.47040000  1
  H  H153  1  0.66510000  0.20420000  0.40160000  1
  H  H154  1  0.07440000  0.05010000  0.15350000  1
  H  H155  1  0.26360000  0.09700000  0.15650000  1
  H  H156  1  0.45150000  0.09490000  0.15400000  1
  H  H157  1  0.40380000  0.93180000  0.13570000  1
  H  H158  1  0.21100000  0.88380000  0.12900000  1
  H  H159  1  0.02510000  0.88650000  0.12930000  1
  H  H160  1  0.79010000  0.33830000  0.69230000  1
  H  H161  1  0.86770000  0.39020000  0.71180000  1
  H  H162  1  0.67630000  0.28750000  0.79320000  1
  H  H163  1  0.67350000  0.27640000  0.74150000  1
  H  H164  1  0.87040000  0.40860000  0.79060000  1
  H  H165  1  0.79540000  0.36840000  0.82300000  1
  H  H166  1  0.59270000  0.33570000  0.69320000  1
  H  H167  1  0.53990000  0.38650000  0.71200000  1
  H  H168  1  0.65790000  0.46530000  0.74230000  1
  H  H169  1  0.78810000  0.46660000  0.74220000  1
  H  H170  1  0.60440000  0.36570000  0.82230000  1
  H  H171  1  0.54830000  0.40510000  0.79060000  1
  H  H172  1  0.17270000  0.14660000  0.80980000  1
  H  H173  1  0.24180000  0.19050000  0.84130000  1
  H  H174  1  0.27950000  0.20570000  0.71070000  1
  H  H175  1  0.19510000  0.15630000  0.73000000  1
  H  H176  1  0.36890000  0.26490000  0.81080000  1
  H  H177  1  0.38340000  0.27100000  0.75880000  1
  H  H178  1  0.26050000  0.08210000  0.76790000  1
  H  H179  1  0.39010000  0.08120000  0.77250000  1
  H  H180  1  0.49900000  0.14970000  0.82170000  1
  H  H181  1  0.43870000  0.19270000  0.84820000  1
  H  H182  1  0.51590000  0.15670000  0.74310000  1
  H  H183  1  0.47050000  0.20570000  0.71820000  1
  H  H184  1  0.97400000  0.08350000  0.74800000  1
  H  H185  1  0.96310000  0.98440000  0.73360000  1
  H  H186  1  0.86070000  0.90000000  0.72600000  1
  H  H187  1  0.57840000  0.96440000  0.73950000  1
  H  H188  1  0.59160000  0.06540000  0.75300000  1
  H  H189  1  0.69430000  0.14930000  0.76570000  1
  H  H190  1  0.22050000  0.26000000  0.63930000  1
  H  H191  1  0.26400000  0.27510000  0.56730000  1
  H  H192  1  0.21820000  0.31100000  0.49450000  1
  H  H193  1  0.94110000  0.37310000  0.47810000  1
  H  H194  1  0.88410000  0.35140000  0.54970000  1
  H  H195  1  0.93110000  0.31560000  0.62300000  1
  H  H196  1  0.07230000  0.19840000  0.90820000  1
  H  H197  1  0.07960000  0.13830000  0.97440000  1
  H  H198  1  0.01660000  0.11220000  0.04300000  1
  H  H199  1  0.78560000  0.21130000  0.03760000  1
  H  H200  1  0.77350000  0.26750000  0.97040000  1
  H  H201  1  0.83490000  0.29580000  0.90160000  1
  H  H202  1  0.42560000  0.44990000  0.65350000  1
  H  H203  1  0.23640000  0.40300000  0.65650000  1
  H  H204  1  0.04850000  0.40510000  0.65400000  1
  H  H205  1  0.09620000  0.56820000  0.63570000  1
  H  H206  1  0.28900000  0.61620000  0.62900000  1
  H  H207  1  0.47490000  0.61350000  0.62930000  1
  C  C208  1  0.29600000  0.86680000  0.78470000  1
  C  C209  1  0.18140000  0.80530000  0.73590000  1
  C  C210  1  0.29890000  0.88490000  0.70650000  1
  C  C211  1  0.10060000  0.86460000  0.78420000  1
  C  C212  1  0.21720000  0.94250000  0.75470000  1
  C  C213  1  0.10860000  0.88270000  0.70710000  1
  C  C214  1  0.74390000  0.67030000  0.68660000  1
  C  C215  1  0.76630000  0.67950000  0.76480000  1
  C  C216  1  0.86980000  0.74430000  0.71700000  1
  C  C217  1  0.83220000  0.60520000  0.72790000  1
  C  C218  1  0.93890000  0.67230000  0.67960000  1
  C  C219  1  0.95650000  0.67970000  0.75720000  1
  C  C220  1  0.41050000  0.68020000  0.73780000  1
  C  C221  1  0.34440000  0.62480000  0.74420000  1
  C  C222  1  0.39620000  0.57940000  0.75140000  1
  C  C223  1  0.33670000  0.52840000  0.75760000  1
  C  C224  1  0.38550000  0.48120000  0.76480000  1
  C  C225  1  0.32510000  0.43120000  0.76970000  1
  C  C226  1  0.21000000  0.42550000  0.76830000  1
  C  C227  1  0.15620000  0.46900000  0.76170000  1
  C  C228  1  0.22000000  0.52290000  0.75620000  1
  C  C229  1  0.16930000  0.56890000  0.74790000  1
  C  C230  1  0.22970000  0.61870000  0.74110000  1
  C  C231  1  0.14340000  0.36930000  0.77280000  1
  C  C232  1  0.55130000  0.78110000  0.81360000  1
  C  C233  1  0.57110000  0.78720000  0.86170000  1
  C  C234  1  0.67060000  0.77490000  0.87930000  1
  C  C235  1  0.69660000  0.78400000  0.92180000  1
  C  C236  1  0.62450000  0.80670000  0.95030000  1
  C  C237  1  0.65110000  0.81950000  0.99390000  1
  C  C238  1  0.58250000  0.84390000  0.02030000  1
  C  C239  1  0.48760000  0.85570000  0.00340000  1
  C  C240  1  0.45340000  0.84390000  0.96030000  1
  C  C241  1  0.52500000  0.82040000  0.93200000  1
  C  C242  1  0.49950000  0.80860000  0.88830000  1
  C  C243  1  0.62120000  0.86110000  0.06590000  1
  C  C244  1  0.49270000  0.76500000  0.64820000  1
  C  C245  1  0.45870000  0.74850000  0.60170000  1
  C  C246  1  0.51160000  0.71220000  0.57890000  1
  C  C247  1  0.47690000  0.69530000  0.53700000  1
  C  C248  1  0.52170000  0.65470000  0.51310000  1
  C  C249  1  0.48330000  0.63870000  0.47260000  1
  C  C250  1  0.39700000  0.66020000  0.45390000  1
  C  C251  1  0.34630000  0.69760000  0.47520000  1
  C  C252  1  0.38610000  0.71600000  0.51770000  1
  C  C253  1  0.33440000  0.75340000  0.54190000  1
  C  C254  1  0.37000000  0.77000000  0.58280000  1
  C  C255  1  0.34270000  0.63940000  0.40940000  1
  C  C256  1  0.08820000  0.03170000  0.85270000  1
  C  C257  1  0.96680000  0.03020000  0.85670000  1
  C  C258  1  0.89740000  0.98300000  0.85180000  1
  C  C259  1  0.77730000  0.98310000  0.85460000  1
  C  C260  1  0.70870000  0.93640000  0.84840000  1
  C  C261  1  0.59800000  0.93800000  0.84920000  1
  C  C262  1  0.55570000  0.98930000  0.85490000  1
  C  C263  1  0.62430000  0.03470000  0.86070000  1
  C  C264  1  0.74620000  0.03450000  0.86160000  1
  C  C265  1  0.81660000  0.08260000  0.86670000  1
  C  C266  1  0.92510000  0.08110000  0.86560000  1
  C  C267  1  0.43640000  0.98890000  0.85170000  1
  C  C268  1  0.20400000  0.63320000  0.28470000  1
  C  C269  1  0.31860000  0.69470000  0.23590000  1
  C  C270  1  0.20110000  0.61510000  0.20650000  1
  C  C271  1  0.39940000  0.63540000  0.28420000  1
  C  C272  1  0.28280000  0.55750000  0.25470000  1
  C  C273  1  0.39140000  0.61730000  0.20710000  1
  C  C274  1  0.75610000  0.82970000  0.18660000  1
  C  C275  1  0.73370000  0.82050000  0.26480000  1
  C  C276  1  0.63020000  0.75570000  0.21700000  1
  C  C277  1  0.66780000  0.89480000  0.22790000  1
  C  C278  1  0.56110000  0.82770000  0.17960000  1
  C  C279  1  0.54350000  0.82030000  0.25720000  1
  C  C280  1  0.08950000  0.81980000  0.23780000  1
  C  C281  1  0.15560000  0.87520000  0.24420000  1
  C  C282  1  0.10380000  0.92060000  0.25140000  1
  C  C283  1  0.16330000  0.97160000  0.25760000  1
  C  C284  1  0.11450000  0.01880000  0.26480000  1
  C  C285  1  0.17490000  0.06880000  0.26970000  1
  C  C286  1  0.29000000  0.07450000  0.26830000  1
  C  C287  1  0.34380000  0.03100000  0.26170000  1
  C  C288  1  0.28000000  0.97710000  0.25620000  1
  C  C289  1  0.33070000  0.93110000  0.24790000  1
  C  C290  1  0.27030000  0.88130000  0.24110000  1
  C  C291  1  0.35660000  0.13070000  0.27280000  1
  C  C292  1  0.94870000  0.71890000  0.31360000  1
  C  C293  1  0.92890000  0.71280000  0.36170000  1
  C  C294  1  0.82940000  0.72510000  0.37930000  1
  C  C295  1  0.80340000  0.71600000  0.42180000  1
  C  C296  1  0.87550000  0.69330000  0.45030000  1
  C  C297  1  0.84890000  0.68050000  0.49390000  1
  C  C298  1  0.91750000  0.65610000  0.52030000  1
  C  C299  1  0.01240000  0.64430000  0.50340000  1
  C  C300  1  0.04660000  0.65610000  0.46030000  1
  C  C301  1  0.97500000  0.67960000  0.43200000  1
  C  C302  1  0.00050000  0.69140000  0.38830000  1
  C  C303  1  0.87880000  0.63890000  0.56590000  1
  C  C304  1  0.00730000  0.73500000  0.14820000  1
  C  C305  1  0.04130000  0.75150000  0.10170000  1
  C  C306  1  0.98840000  0.78780000  0.07890000  1
  C  C307  1  0.02310000  0.80470000  0.03700000  1
  C  C308  1  0.97830000  0.84530000  0.01310000  1
  C  C309  1  0.01670000  0.86130000  0.97260000  1
  C  C310  1  0.10300000  0.83980000  0.95390000  1
  C  C311  1  0.15370000  0.80240000  0.97520000  1
  C  C312  1  0.11390000  0.78400000  0.01770000  1
  C  C313  1  0.16560000  0.74660000  0.04190000  1
  C  C314  1  0.13000000  0.73000000  0.08280000  1
  C  C315  1  0.15730000  0.86060000  0.90940000  1
  C  C316  1  0.41180000  0.46830000  0.35270000  1
  C  C317  1  0.53320000  0.46980000  0.35670000  1
  C  C318  1  0.60260000  0.51700000  0.35180000  1
  C  C319  1  0.72270000  0.51690000  0.35460000  1
  C  C320  1  0.79130000  0.56360000  0.34840000  1
  C  C321  1  0.90200000  0.56200000  0.34920000  1
  C  C322  1  0.94430000  0.51070000  0.35490000  1
  C  C323  1  0.87570000  0.46530000  0.36070000  1
  C  C324  1  0.75380000  0.46550000  0.36160000  1
  C  C325  1  0.68340000  0.41740000  0.36670000  1
  C  C326  1  0.57490000  0.41890000  0.36560000  1
  C  C327  1  0.06360000  0.51110000  0.35170000  1
  C  C328  1  0.70400000  0.13320000  0.21530000  1
  C  C329  1  0.81860000  0.19470000  0.26410000  1
  C  C330  1  0.70110000  0.11510000  0.29350000  1
  C  C331  1  0.89940000  0.13540000  0.21580000  1
  C  C332  1  0.78280000  0.05750000  0.24530000  1
  C  C333  1  0.89140000  0.11730000  0.29290000  1
  C  C334  1  0.25610000  0.32970000  0.31340000  1
  C  C335  1  0.23370000  0.32050000  0.23520000  1
  C  C336  1  0.13020000  0.25570000  0.28300000  1
  C  C337  1  0.16780000  0.39480000  0.27210000  1
  C  C338  1  0.06110000  0.32770000  0.32040000  1
  C  C339  1  0.04350000  0.32030000  0.24280000  1
  C  C340  1  0.58950000  0.31980000  0.26220000  1
  C  C341  1  0.65560000  0.37520000  0.25580000  1
  C  C342  1  0.60380000  0.42060000  0.24860000  1
  C  C343  1  0.66330000  0.47160000  0.24240000  1
  C  C344  1  0.61450000  0.51880000  0.23520000  1
  C  C345  1  0.67490000  0.56880000  0.23030000  1
  C  C346  1  0.79000000  0.57450000  0.23170000  1
  C  C347  1  0.84380000  0.53100000  0.23830000  1
  C  C348  1  0.78000000  0.47710000  0.24380000  1
  C  C349  1  0.83070000  0.43110000  0.25210000  1
  C  C350  1  0.77030000  0.38130000  0.25890000  1
  C  C351  1  0.85660000  0.63070000  0.22720000  1
  C  C352  1  0.44870000  0.21890000  0.18640000  1
  C  C353  1  0.42890000  0.21280000  0.13830000  1
  C  C354  1  0.32940000  0.22510000  0.12070000  1
  C  C355  1  0.30340000  0.21600000  0.07820000  1
  C  C356  1  0.37550000  0.19330000  0.04970000  1
  C  C357  1  0.34890000  0.18050000  0.00610000  1
  C  C358  1  0.41750000  0.15610000  0.97970000  1
  C  C359  1  0.51240000  0.14430000  0.99660000  1
  C  C360  1  0.54660000  0.15610000  0.03970000  1
  C  C361  1  0.47500000  0.17960000  0.06800000  1
  C  C362  1  0.50050000  0.19140000  0.11170000  1
  C  C363  1  0.37880000  0.13890000  0.93410000  1
  C  C364  1  0.50730000  0.23500000  0.35180000  1
  C  C365  1  0.54130000  0.25150000  0.39830000  1
  C  C366  1  0.48840000  0.28780000  0.42110000  1
  C  C367  1  0.52310000  0.30470000  0.46300000  1
  C  C368  1  0.47830000  0.34530000  0.48690000  1
  C  C369  1  0.51670000  0.36130000  0.52740000  1
  C  C370  1  0.60300000  0.33980000  0.54610000  1
  C  C371  1  0.65370000  0.30240000  0.52480000  1
  C  C372  1  0.61390000  0.28400000  0.48230000  1
  C  C373  1  0.66560000  0.24660000  0.45810000  1
  C  C374  1  0.63000000  0.23000000  0.41720000  1
  C  C375  1  0.65730000  0.36060000  0.59060000  1
  C  C376  1  0.91180000  0.96830000  0.14730000  1
  C  C377  1  0.03320000  0.96980000  0.14330000  1
  C  C378  1  0.10260000  0.01700000  0.14820000  1
  C  C379  1  0.22270000  0.01690000  0.14540000  1
  C  C380  1  0.29130000  0.06360000  0.15160000  1
  C  C381  1  0.40200000  0.06200000  0.15080000  1
  C  C382  1  0.44430000  0.01070000  0.14510000  1
  C  C383  1  0.37570000  0.96530000  0.13930000  1
  C  C384  1  0.25380000  0.96550000  0.13840000  1
  C  C385  1  0.18340000  0.91740000  0.13330000  1
  C  C386  1  0.07490000  0.91890000  0.13440000  1
  C  C387  1  0.56360000  0.01110000  0.14830000  1
  C  C388  1  0.79600000  0.36680000  0.71530000  1
  C  C389  1  0.68140000  0.30530000  0.76410000  1
  C  C390  1  0.79890000  0.38490000  0.79350000  1
  C  C391  1  0.60060000  0.36460000  0.71580000  1
  C  C392  1  0.71720000  0.44250000  0.74530000  1
  C  C393  1  0.60860000  0.38270000  0.79290000  1
  C  C394  1  0.24390000  0.17030000  0.81340000  1
  C  C395  1  0.26630000  0.17950000  0.73520000  1
  C  C396  1  0.36980000  0.24430000  0.78300000  1
  C  C397  1  0.33220000  0.10520000  0.77210000  1
  C  C398  1  0.43890000  0.17230000  0.82040000  1
  C  C399  1  0.45650000  0.17970000  0.74280000  1
  C  C400  1  0.91050000  0.18020000  0.76220000  1
  C  C401  1  0.84440000  0.12480000  0.75580000  1
  C  C402  1  0.89620000  0.07940000  0.74860000  1
  C  C403  1  0.83670000  0.02840000  0.74240000  1
  C  C404  1  0.88550000  0.98120000  0.73520000  1
  C  C405  1  0.82510000  0.93120000  0.73030000  1
  C  C406  1  0.71000000  0.92550000  0.73170000  1
  C  C407  1  0.65620000  0.96900000  0.73830000  1
  C  C408  1  0.72000000  0.02290000  0.74380000  1
  C  C409  1  0.66930000  0.06890000  0.75210000  1
  C  C410  1  0.72970000  0.11870000  0.75890000  1
  C  C411  1  0.64340000  0.86930000  0.72720000  1
  C  C412  1  0.05130000  0.28110000  0.68640000  1
  C  C413  1  0.07110000  0.28720000  0.63830000  1
  C  C414  1  0.17060000  0.27490000  0.62070000  1
  C  C415  1  0.19660000  0.28400000  0.57820000  1
  C  C416  1  0.12450000  0.30670000  0.54970000  1
  C  C417  1  0.15110000  0.31950000  0.50610000  1
  C  C418  1  0.08250000  0.34390000  0.47970000  1
  C  C419  1  0.98760000  0.35570000  0.49660000  1
  C  C420  1  0.95340000  0.34390000  0.53970000  1
  C  C421  1  0.02500000  0.32040000  0.56800000  1
  C  C422  1  0.99950000  0.30860000  0.61170000  1
  C  C423  1  0.12120000  0.36110000  0.43410000  1
  C  C424  1  0.99270000  0.26500000  0.85180000  1
  C  C425  1  0.95870000  0.24850000  0.89830000  1
  C  C426  1  0.01160000  0.21220000  0.92110000  1
  C  C427  1  0.97690000  0.19530000  0.96300000  1
  C  C428  1  0.02170000  0.15470000  0.98690000  1
  C  C429  1  0.98330000  0.13870000  0.02740000  1
  C  C430  1  0.89700000  0.16020000  0.04610000  1
  C  C431  1  0.84630000  0.19760000  0.02480000  1
  C  C432  1  0.88610000  0.21600000  0.98230000  1
  C  C433  1  0.83440000  0.25340000  0.95810000  1
  C  C434  1  0.87000000  0.27000000  0.91720000  1
  C  C435  1  0.84270000  0.13940000  0.09060000  1
  C  C436  1  0.58820000  0.53170000  0.64730000  1
  C  C437  1  0.46680000  0.53020000  0.64330000  1
  C  C438  1  0.39740000  0.48300000  0.64820000  1
  C  C439  1  0.27730000  0.48310000  0.64540000  1
  C  C440  1  0.20870000  0.43640000  0.65160000  1
  C  C441  1  0.09800000  0.43800000  0.65080000  1
  C  C442  1  0.05570000  0.48930000  0.64510000  1
  C  C443  1  0.12430000  0.53470000  0.63930000  1
  C  C444  1  0.24620000  0.53450000  0.63840000  1
  C  C445  1  0.31660000  0.58260000  0.63330000  1
  C  C446  1  0.42510000  0.58110000  0.63440000  1
  C  C447  1  0.93640000  0.48890000  0.64830000  1
  N  N448  1  0.29110000  0.84030000  0.74060000  1
  N  N449  1  0.20660000  0.90050000  0.79040000  1
  N  N450  1  0.09220000  0.83920000  0.74070000  1
  N  N451  1  0.21130000  0.91780000  0.71120000  1
  N  N452  1  0.76070000  0.70960000  0.72350000  1
  N  N453  1  0.83270000  0.63630000  0.68490000  1
  N  N454  1  0.85260000  0.64550000  0.76390000  1
  N  N455  1  0.95850000  0.71050000  0.71560000  1
  N  N456  1  0.20890000  0.65970000  0.24060000  1
  N  N457  1  0.29340000  0.59950000  0.29040000  1
  N  N458  1  0.40780000  0.66080000  0.24070000  1
  N  N459  1  0.28870000  0.58220000  0.21120000  1
  N  N460  1  0.73930000  0.79040000  0.22350000  1
  N  N461  1  0.66730000  0.86370000  0.18490000  1
  N  N462  1  0.64740000  0.85450000  0.26390000  1
  N  N463  1  0.54150000  0.78950000  0.21560000  1
  N  N464  1  0.70890000  0.15970000  0.25940000  1
  N  N465  1  0.79340000  0.09950000  0.20960000  1
  N  N466  1  0.90780000  0.16080000  0.25930000  1
  N  N467  1  0.78870000  0.08220000  0.28880000  1
  N  N468  1  0.23930000  0.29040000  0.27650000  1
  N  N469  1  0.16730000  0.36370000  0.31510000  1
  N  N470  1  0.14740000  0.35450000  0.23610000  1
  N  N471  1  0.04150000  0.28950000  0.28440000  1
  N  N472  1  0.79110000  0.34030000  0.75940000  1
  N  N473  1  0.70660000  0.40050000  0.70960000  1
  N  N474  1  0.59220000  0.33920000  0.75930000  1
  N  N475  1  0.71130000  0.41780000  0.78880000  1
  N  N476  1  0.26070000  0.20960000  0.77650000  1
  N  N477  1  0.33270000  0.13630000  0.81510000  1
  N  N478  1  0.35260000  0.14550000  0.73610000  1
  N  N479  1  0.45850000  0.21050000  0.78440000  1
  O  O480  1  0.51350000  0.68370000  0.73840000  1
  O  O481  1  0.35700000  0.71990000  0.73240000  1
  O  O482  1  0.04140000  0.36490000  0.76500000  1
  O  O483  1  0.19300000  0.33110000  0.78400000  1
  O  O484  1  0.62860000  0.76800000  0.79020000  1
  O  O485  1  0.45920000  0.78890000  0.79925000  1
  O  O486  1  0.55940000  0.88710000  0.08740000  1
  O  O487  1  0.70510000  0.84640000  0.08060000  1
  O  O488  1  0.57430000  0.74580000  0.66300000  1
  O  O489  1  0.43710000  0.79550000  0.66770000  1
  O  O490  1  0.27890000  0.66320000  0.39120000  1
  O  O491  1  0.37750000  0.59600000  0.39690000  1
  O  O492  1  0.14500000  0.07350000  0.86700000  1
  O  O493  1  0.12470000  0.99260000  0.83400000  1
  O  O494  1  0.37680000  0.94370000  0.85880000  1
  O  O495  1  0.39840000  0.03120000  0.84080000  1
  O  O496  1  0.98650000  0.81630000  0.23840000  1
  O  O497  1  0.14300000  0.78010000  0.23240000  1
  O  O498  1  0.45860000  0.13510000  0.26500000  1
  O  O499  1  0.30700000  0.16890000  0.28400000  1
  O  O500  1  0.87140000  0.73200000  0.29020000  1
  O  O501  1  0.04080000  0.71110000  0.29925000  1
  O  O502  1  0.94060000  0.61290000  0.58740000  1
  O  O503  1  0.79490000  0.65360000  0.58060000  1
  O  O504  1  0.92570000  0.75420000  0.16300000  1
  O  O505  1  0.06290000  0.70450000  0.16770000  1
  O  O506  1  0.22110000  0.83680000  0.89120000  1
  O  O507  1  0.12250000  0.90400000  0.89690000  1
  O  O508  1  0.35500000  0.42650000  0.36700000  1
  O  O509  1  0.37530000  0.50740000  0.33400000  1
  O  O510  1  0.12320000  0.55630000  0.35880000  1
  O  O511  1  0.10160000  0.46880000  0.34080000  1
  O  O512  1  0.48650000  0.31630000  0.26160000  1
  O  O513  1  0.64300000  0.28010000  0.26760000  1
  O  O514  1  0.95860000  0.63510000  0.23500000  1
  O  O515  1  0.80700000  0.66890000  0.21600000  1
  O  O516  1  0.37140000  0.23200000  0.20980000  1
  O  O517  1  0.54080000  0.21110000  0.20075000  1
  O  O518  1  0.44060000  0.11290000  0.91260000  1
  O  O519  1  0.29490000  0.15360000  0.91940000  1
  O  O520  1  0.42570000  0.25420000  0.33700000  1
  O  O521  1  0.56290000  0.20450000  0.33230000  1
  O  O522  1  0.72110000  0.33680000  0.60880000  1
  O  O523  1  0.62250000  0.40400000  0.60310000  1
  O  O524  1  0.85500000  0.92650000  0.13300000  1
  O  O525  1  0.87530000  0.00740000  0.16600000  1
  O  O526  1  0.62320000  0.05630000  0.14120000  1
  O  O527  1  0.60160000  0.96880000  0.15920000  1
  O  O528  1  0.01350000  0.18370000  0.76160000  1
  O  O529  1  0.85700000  0.21990000  0.76760000  1
  O  O530  1  0.54140000  0.86490000  0.73500000  1
  O  O531  1  0.69300000  0.83110000  0.71600000  1
  O  O532  1  0.12860000  0.26800000  0.70980000  1
  O  O533  1  0.95920000  0.28890000  0.70075000  1
  O  O534  1  0.05940000  0.38710000  0.41260000  1
  O  O535  1  0.20510000  0.34640000  0.41940000  1
  O  O536  1  0.07430000  0.24580000  0.83700000  1
  O  O537  1  0.93710000  0.29550000  0.83230000  1
  O  O538  1  0.77890000  0.16320000  0.10880000  1
  O  O539  1  0.87750000  0.09600000  0.10310000  1
  O  O540  1  0.64500000  0.57350000  0.63300000  1
  O  O541  1  0.62470000  0.49260000  0.66600000  1
  O  O542  1  0.87680000  0.44370000  0.64120000  1
  O  O543  1  0.89840000  0.53120000  0.65920000  1
