# generated using pymatgen
data_TbH24C44S4(NO3)4
_symmetry_space_group_name_H-M   'P 1'
_cell_length_a   9.83790000
_cell_length_b   15.38730000
_cell_length_c   15.38730000
_cell_angle_alpha   90.00000000
_cell_angle_beta   90.00000000
_cell_angle_gamma   90.00000000
_symmetry_Int_Tables_number   1
_chemical_formula_structural   TbH24C44S4(NO3)4
_chemical_formula_sum   'Tb2 H48 C88 S8 N8 O24'
_cell_volume   2329.30975779
_cell_formula_units_Z   2
loop_
 _symmetry_equiv_pos_site_id
 _symmetry_equiv_pos_as_xyz
  1  'x, y, z'
loop_
 _atom_site_type_symbol
 _atom_site_label
 _atom_site_symmetry_multiplicity
 _atom_site_fract_x
 _atom_site_fract_y
 _atom_site_fract_z
 _atom_site_occupancy
  Tb  Tb0  1  0.25000000  0.50000000  0.50000000  1
  Tb  Tb1  1  0.75000000  0.50000000  0.50000000  1
  H  H2  1  0.20400000  0.41160000  0.26270000  1
  H  H3  1  0.20400000  0.28760000  0.17820000  1
  H  H4  1  0.20400000  0.58840000  0.73730000  1
  H  H5  1  0.20400000  0.71240000  0.82180000  1
  H  H6  1  0.20400000  0.73730000  0.41160000  1
  H  H7  1  0.20400000  0.82180000  0.28760000  1
  H  H8  1  0.20400000  0.26270000  0.58840000  1
  H  H9  1  0.20400000  0.17820000  0.71240000  1
  H  H10  1  0.29600000  0.58840000  0.26270000  1
  H  H11  1  0.29600000  0.71240000  0.17820000  1
  H  H12  1  0.29600000  0.41160000  0.73730000  1
  H  H13  1  0.29600000  0.28760000  0.82180000  1
  H  H14  1  0.29600000  0.26270000  0.41160000  1
  H  H15  1  0.29600000  0.17820000  0.28760000  1
  H  H16  1  0.29600000  0.73730000  0.58840000  1
  H  H17  1  0.29600000  0.82180000  0.71240000  1
  H  H18  1  0.79600000  0.58840000  0.73730000  1
  H  H19  1  0.79600000  0.71240000  0.82180000  1
  H  H20  1  0.79600000  0.41160000  0.26270000  1
  H  H21  1  0.79600000  0.28760000  0.17820000  1
  H  H22  1  0.79600000  0.26270000  0.58840000  1
  H  H23  1  0.79600000  0.17820000  0.71240000  1
  H  H24  1  0.79600000  0.73730000  0.41160000  1
  H  H25  1  0.79600000  0.82180000  0.28760000  1
  H  H26  1  0.70400000  0.41160000  0.73730000  1
  H  H27  1  0.70400000  0.28760000  0.82180000  1
  H  H28  1  0.70400000  0.58840000  0.26270000  1
  H  H29  1  0.70400000  0.71240000  0.17820000  1
  H  H30  1  0.70400000  0.73730000  0.58840000  1
  H  H31  1  0.70400000  0.82180000  0.71240000  1
  H  H32  1  0.70400000  0.26270000  0.41160000  1
  H  H33  1  0.70400000  0.17820000  0.28760000  1
  H  H34  1  0.00000000  0.15160000  0.29740000  1
  H  H35  1  0.00000000  0.99720000  0.33310000  1
  H  H36  1  0.00000000  0.84840000  0.70260000  1
  H  H37  1  0.00000000  0.00280000  0.66690000  1
  H  H38  1  0.00000000  0.70260000  0.15160000  1
  H  H39  1  0.00000000  0.66690000  0.99720000  1
  H  H40  1  0.00000000  0.29740000  0.84840000  1
  H  H41  1  0.00000000  0.33310000  0.00280000  1
  H  H42  1  0.50000000  0.84840000  0.29740000  1
  H  H43  1  0.50000000  0.00280000  0.33310000  1
  H  H44  1  0.50000000  0.15160000  0.70260000  1
  H  H45  1  0.50000000  0.99720000  0.66690000  1
  H  H46  1  0.50000000  0.29740000  0.15160000  1
  H  H47  1  0.50000000  0.33310000  0.99720000  1
  H  H48  1  0.50000000  0.70260000  0.84840000  1
  H  H49  1  0.50000000  0.66690000  0.00280000  1
  C  C50  1  0.12220000  0.38697000  0.24501000  1
  C  C51  1  0.12190000  0.31227000  0.19518000  1
  C  C52  1  0.12220000  0.61303000  0.75499000  1
  C  C53  1  0.12190000  0.68773000  0.80482000  1
  C  C54  1  0.12220000  0.75499000  0.38697000  1
  C  C55  1  0.12190000  0.80482000  0.31227000  1
  C  C56  1  0.12220000  0.24501000  0.61303000  1
  C  C57  1  0.12190000  0.19518000  0.68773000  1
  C  C58  1  0.37780000  0.61303000  0.24501000  1
  C  C59  1  0.37810000  0.68773000  0.19518000  1
  C  C60  1  0.37780000  0.38697000  0.75499000  1
  C  C61  1  0.37810000  0.31227000  0.80482000  1
  C  C62  1  0.37780000  0.24501000  0.38697000  1
  C  C63  1  0.37810000  0.19518000  0.31227000  1
  C  C64  1  0.37780000  0.75499000  0.61303000  1
  C  C65  1  0.37810000  0.80482000  0.68773000  1
  C  C66  1  0.87780000  0.61303000  0.75499000  1
  C  C67  1  0.87810000  0.68773000  0.80482000  1
  C  C68  1  0.87780000  0.38697000  0.24501000  1
  C  C69  1  0.87810000  0.31227000  0.19518000  1
  C  C70  1  0.87780000  0.24501000  0.61303000  1
  C  C71  1  0.87810000  0.19518000  0.68773000  1
  C  C72  1  0.87780000  0.75499000  0.38697000  1
  C  C73  1  0.87810000  0.80482000  0.31227000  1
  C  C74  1  0.62220000  0.38697000  0.75499000  1
  C  C75  1  0.62190000  0.31227000  0.80482000  1
  C  C76  1  0.62220000  0.61303000  0.24501000  1
  C  C77  1  0.62190000  0.68773000  0.19518000  1
  C  C78  1  0.62220000  0.75499000  0.61303000  1
  C  C79  1  0.62190000  0.80482000  0.68773000  1
  C  C80  1  0.62220000  0.24501000  0.38697000  1
  C  C81  1  0.62190000  0.19518000  0.31227000  1
  C  C82  1  0.00000000  0.42500000  0.26850000  1
  C  C83  1  0.00000000  0.27350000  0.17000000  1
  C  C84  1  0.00000000  0.19150000  0.11790000  1
  C  C85  1  0.00000000  0.11270000  0.16440000  1
  C  C86  1  0.00000000  0.10580000  0.25800000  1
  C  C87  1  0.00000000  0.02070000  0.27740000  1
  C  C88  1  0.00000000  0.97200000  0.19810000  1
  C  C89  1  0.00000000  0.57500000  0.73150000  1
  C  C90  1  0.00000000  0.72650000  0.83000000  1
  C  C91  1  0.00000000  0.80850000  0.88210000  1
  C  C92  1  0.00000000  0.88730000  0.83560000  1
  C  C93  1  0.00000000  0.89420000  0.74200000  1
  C  C94  1  0.00000000  0.97930000  0.72260000  1
  C  C95  1  0.00000000  0.02800000  0.80190000  1
  C  C96  1  0.00000000  0.73150000  0.42500000  1
  C  C97  1  0.00000000  0.83000000  0.27350000  1
  C  C98  1  0.00000000  0.88210000  0.19150000  1
  C  C99  1  0.00000000  0.83560000  0.11270000  1
  C  C100  1  0.00000000  0.74200000  0.10580000  1
  C  C101  1  0.00000000  0.72260000  0.02070000  1
  C  C102  1  0.00000000  0.80190000  0.97200000  1
  C  C103  1  0.00000000  0.26850000  0.57500000  1
  C  C104  1  0.00000000  0.17000000  0.72650000  1
  C  C105  1  0.00000000  0.11790000  0.80850000  1
  C  C106  1  0.00000000  0.16440000  0.88730000  1
  C  C107  1  0.00000000  0.25800000  0.89420000  1
  C  C108  1  0.00000000  0.27740000  0.97930000  1
  C  C109  1  0.00000000  0.19810000  0.02800000  1
  C  C110  1  0.50000000  0.57500000  0.26850000  1
  C  C111  1  0.50000000  0.72650000  0.17000000  1
  C  C112  1  0.50000000  0.80850000  0.11790000  1
  C  C113  1  0.50000000  0.88730000  0.16440000  1
  C  C114  1  0.50000000  0.89420000  0.25800000  1
  C  C115  1  0.50000000  0.97930000  0.27740000  1
  C  C116  1  0.50000000  0.02800000  0.19810000  1
  C  C117  1  0.50000000  0.42500000  0.73150000  1
  C  C118  1  0.50000000  0.27350000  0.83000000  1
  C  C119  1  0.50000000  0.19150000  0.88210000  1
  C  C120  1  0.50000000  0.11270000  0.83560000  1
  C  C121  1  0.50000000  0.10580000  0.74200000  1
  C  C122  1  0.50000000  0.02070000  0.72260000  1
  C  C123  1  0.50000000  0.97200000  0.80190000  1
  C  C124  1  0.50000000  0.26850000  0.42500000  1
  C  C125  1  0.50000000  0.17000000  0.27350000  1
  C  C126  1  0.50000000  0.11790000  0.19150000  1
  C  C127  1  0.50000000  0.16440000  0.11270000  1
  C  C128  1  0.50000000  0.25800000  0.10580000  1
  C  C129  1  0.50000000  0.27740000  0.02070000  1
  C  C130  1  0.50000000  0.19810000  0.97200000  1
  C  C131  1  0.50000000  0.73150000  0.57500000  1
  C  C132  1  0.50000000  0.83000000  0.72650000  1
  C  C133  1  0.50000000  0.88210000  0.80850000  1
  C  C134  1  0.50000000  0.83560000  0.88730000  1
  C  C135  1  0.50000000  0.74200000  0.89420000  1
  C  C136  1  0.50000000  0.72260000  0.97930000  1
  C  C137  1  0.50000000  0.80190000  0.02800000  1
  S  S138  1  0.00000000  0.52674000  0.32096000  1
  S  S139  1  0.00000000  0.47326000  0.67904000  1
  S  S140  1  0.00000000  0.67904000  0.52674000  1
  S  S141  1  0.00000000  0.32096000  0.47326000  1
  S  S142  1  0.50000000  0.47326000  0.32096000  1
  S  S143  1  0.50000000  0.52674000  0.67904000  1
  S  S144  1  0.50000000  0.32096000  0.52674000  1
  S  S145  1  0.50000000  0.67904000  0.47326000  1
  N  N146  1  0.00000000  0.02990000  0.12970000  1
  N  N147  1  0.00000000  0.97010000  0.87030000  1
  N  N148  1  0.00000000  0.87030000  0.02990000  1
  N  N149  1  0.00000000  0.12970000  0.97010000  1
  N  N150  1  0.50000000  0.97010000  0.12970000  1
  N  N151  1  0.50000000  0.02990000  0.87030000  1
  N  N152  1  0.50000000  0.12970000  0.02990000  1
  N  N153  1  0.50000000  0.87030000  0.97010000  1
  O  O154  1  0.12230000  0.53184000  0.37360000  1
  O  O155  1  0.12230000  0.46816000  0.62640000  1
  O  O156  1  0.12230000  0.62640000  0.53184000  1
  O  O157  1  0.12230000  0.37360000  0.46816000  1
  O  O158  1  0.37770000  0.46816000  0.37360000  1
  O  O159  1  0.37770000  0.53184000  0.62640000  1
  O  O160  1  0.37770000  0.37360000  0.53184000  1
  O  O161  1  0.37770000  0.62640000  0.46816000  1
  O  O162  1  0.87770000  0.46816000  0.62640000  1
  O  O163  1  0.87770000  0.53184000  0.37360000  1
  O  O164  1  0.87770000  0.37360000  0.46816000  1
  O  O165  1  0.87770000  0.62640000  0.53184000  1
  O  O166  1  0.62230000  0.53184000  0.62640000  1
  O  O167  1  0.62230000  0.46816000  0.37360000  1
  O  O168  1  0.62230000  0.62640000  0.46816000  1
  O  O169  1  0.62230000  0.37360000  0.53184000  1
  O  O170  1  0.00000000  0.58954000  0.25267000  1
  O  O171  1  0.00000000  0.41046000  0.74733000  1
  O  O172  1  0.00000000  0.74733000  0.58954000  1
  O  O173  1  0.00000000  0.25267000  0.41046000  1
  O  O174  1  0.50000000  0.41046000  0.25267000  1
  O  O175  1  0.50000000  0.58954000  0.74733000  1
  O  O176  1  0.50000000  0.25267000  0.58954000  1
  O  O177  1  0.50000000  0.74733000  0.41046000  1
