# generated using pymatgen
data_LaH5(C4O3)3
_symmetry_space_group_name_H-M   'P 1'
_cell_length_a   10.53400000
_cell_length_b   11.30000000
_cell_length_c   12.66100000
_cell_angle_alpha   101.90100000
_cell_angle_beta   108.73000000
_cell_angle_gamma   99.04400000
_symmetry_Int_Tables_number   1
_chemical_formula_structural   LaH5(C4O3)3
_chemical_formula_sum   'La2 H10 C24 O18'
_cell_volume   1355.40601265
_cell_formula_units_Z   2
loop_
 _symmetry_equiv_pos_site_id
 _symmetry_equiv_pos_as_xyz
  1  'x, y, z'
loop_
 _atom_site_type_symbol
 _atom_site_label
 _atom_site_symmetry_multiplicity
 _atom_site_fract_x
 _atom_site_fract_y
 _atom_site_fract_z
 _atom_site_occupancy
  La  La0  1  0.89680000  0.45560000  0.31768000  1
  La  La1  1  0.10320000  0.54440000  0.68232000  1
  H  H2  1  0.07390000  0.87750000  0.70660000  1
  H  H3  1  0.73810000  0.60580000  0.74480000  1
  H  H4  1  0.81410000  0.08670000  0.05730000  1
  H  H5  1  0.98580000  0.85650000  0.33670000  1
  H  H6  1  0.59970000  0.43770000  0.36770000  1
  H  H7  1  0.92610000  0.12250000  0.29340000  1
  H  H8  1  0.26190000  0.39420000  0.25520000  1
  H  H9  1  0.18590000  0.91330000  0.94270000  1
  H  H10  1  0.01420000  0.14350000  0.66330000  1
  H  H11  1  0.40030000  0.56230000  0.63230000  1
  C  C12  1  0.03190000  0.97010000  0.60630000  1
  C  C13  1  0.02290000  0.88270000  0.50580000  1
  C  C14  1  0.99150000  0.91470000  0.40280000  1
  C  C15  1  0.04140000  0.75370000  0.50710000  1
  C  C16  1  0.58200000  0.55110000  0.61770000  1
  C  C17  1  0.64330000  0.51440000  0.53710000  1
  C  C18  1  0.55930000  0.46320000  0.42110000  1
  C  C19  1  0.79380000  0.53110000  0.57300000  1
  C  C20  1  0.63750000  0.01800000  0.01250000  1
  C  C21  1  0.59300000  0.11060000  0.07320000  1
  C  C22  1  0.45410000  0.09220000  0.05930000  1
  C  C23  1  0.69550000  0.22890000  0.14970000  1
  C  C24  1  0.96810000  0.02990000  0.39370000  1
  C  C25  1  0.97710000  0.11730000  0.49420000  1
  C  C26  1  0.00850000  0.08530000  0.59720000  1
  C  C27  1  0.95860000  0.24630000  0.49290000  1
  C  C28  1  0.41800000  0.44890000  0.38230000  1
  C  C29  1  0.35670000  0.48560000  0.46290000  1
  C  C30  1  0.44070000  0.53680000  0.57890000  1
  C  C31  1  0.20620000  0.46890000  0.42700000  1
  C  C32  1  0.36250000  0.98200000  0.98750000  1
  C  C33  1  0.40700000  0.88940000  0.92680000  1
  C  C34  1  0.54590000  0.90780000  0.94070000  1
  C  C35  1  0.30450000  0.77110000  0.85030000  1
  O  O36  1  0.01600000  0.67720000  0.41250000  1
  O  O37  1  0.08130000  0.73120000  0.60500000  1
  O  O38  1  0.06240000  0.94830000  0.71150000  1
  O  O39  1  0.84930000  0.50650000  0.49890000  1
  O  O40  1  0.86700000  0.56870000  0.67970000  1
  O  O41  1  0.65590000  0.60120000  0.73240000  1
  O  O42  1  0.81440000  0.25150000  0.14890000  1
  O  O43  1  0.65550000  0.30590000  0.21350000  1
  O  O44  1  0.76230000  0.01960000  0.01550000  1
  O  O45  1  0.98400000  0.32280000  0.58750000  1
  O  O46  1  0.91870000  0.26880000  0.39500000  1
  O  O47  1  0.93760000  0.05170000  0.28850000  1
  O  O48  1  0.15070000  0.49350000  0.50110000  1
  O  O49  1  0.13300000  0.43130000  0.32030000  1
  O  O50  1  0.34410000  0.39880000  0.26760000  1
  O  O51  1  0.18560000  0.74850000  0.85110000  1
  O  O52  1  0.34450000  0.69410000  0.78650000  1
  O  O53  1  0.23770000  0.98040000  0.98450000  1
