# generated using pymatgen
data_Al3H12C24O13
_symmetry_space_group_name_H-M   'P 1'
_cell_length_a   13.76381837
_cell_length_b   17.35646110
_cell_length_c   17.35631844
_cell_angle_alpha   119.99957027
_cell_angle_beta   89.99999930
_cell_angle_gamma   90.00000166
_symmetry_Int_Tables_number   1
_chemical_formula_structural   Al3H12C24O13
_chemical_formula_sum   'Al6 H24 C48 O26'
_cell_volume   3590.79187580
_cell_formula_units_Z   2
loop_
 _symmetry_equiv_pos_site_id
 _symmetry_equiv_pos_as_xyz
  1  'x, y, z'
loop_
 _atom_site_type_symbol
 _atom_site_label
 _atom_site_symmetry_multiplicity
 _atom_site_fract_x
 _atom_site_fract_y
 _atom_site_fract_z
 _atom_site_occupancy
  Al  Al0  1  0.25000726  0.55130448  0.27570757  1
  Al  Al1  1  0.25000727  0.72439897  0.44880320  1
  Al  Al2  1  0.25000727  0.72439655  0.27570076  1
  Al  Al3  1  0.75000727  0.44876362  0.72442620  1
  Al  Al4  1  0.75000727  0.27566912  0.55133057  1
  Al  Al5  1  0.75000726  0.27567155  0.72443301  1
  H  H6  1  0.98121595  0.88007500  0.32682755  1
  H  H7  1  0.12901147  0.97302081  0.59981964  1
  H  H8  1  0.01878405  0.11999310  0.67330622  1
  H  H9  1  0.87098853  0.02704728  0.40031413  1
  H  H10  1  0.51583466  0.88193238  0.55601065  1
  H  H11  1  0.37393786  0.97116347  0.37064070  1
  H  H12  1  0.48416534  0.11813572  0.44412312  1
  H  H13  1  0.62606214  0.02890463  0.62949307  1
  H  H14  1  0.47171032  0.41400337  0.32367914  1
  H  H15  1  0.41806150  0.65954872  0.60296525  1
  H  H16  1  0.52828968  0.58606473  0.67645463  1
  H  H17  1  0.58193850  0.34051938  0.39716851  1
  H  H18  1  0.13734158  0.61873900  0.59699550  1
  H  H19  1  0.97288858  0.45481681  0.32965386  1
  H  H20  1  0.86265842  0.38132910  0.40313827  1
  H  H21  1  0.02711142  0.54525128  0.67047991  1
  H  H22  1  0.96957530  0.58712526  0.91105393  1
  H  H23  1  0.92019525  0.33946105  0.94210762  1
  H  H24  1  0.03042470  0.41294284  0.08907983  1
  H  H25  1  0.07980475  0.66060704  0.05802615  1
  H  H26  1  0.58123044  0.60567059  0.15929721  1
  H  H27  1  0.30854215  0.46788279  0.98781005  1
  H  H28  1  0.41876956  0.39439750  0.84083656  1
  H  H29  1  0.69145785  0.53218530  0.01232372  1
  C  C30  1  0.37331607  0.58448706  0.16897735  1
  C  C31  1  0.37331607  0.58449051  0.41560971  1
  C  C32  1  0.37331607  0.83112243  0.41561294  1
  C  C33  1  0.12668393  0.58448706  0.16897735  1
  C  C34  1  0.12668393  0.58449051  0.41560971  1
  C  C35  1  0.12668393  0.83112243  0.41561294  1
  C  C36  1  0.87331607  0.41558104  0.83115642  1
  C  C37  1  0.87331607  0.41557759  0.58452405  1
  C  C38  1  0.87331607  0.16894567  0.58452083  1
  C  C39  1  0.62668393  0.41558103  0.83115642  1
  C  C40  1  0.62668393  0.41557759  0.58452405  1
  C  C41  1  0.62668393  0.16894566  0.58452083  1
  C  C42  1  0.98920618  0.93110236  0.40051891  1
  C  C43  1  0.06334214  0.91557801  0.45783980  1
  C  C44  1  0.07413596  0.98450970  0.55738777  1
  C  C45  1  0.01079382  0.06896574  0.59961486  1
  C  C46  1  0.93665786  0.08449009  0.54229397  1
  C  C47  1  0.92586404  0.01555840  0.44274600  1
  C  C48  1  0.50909902  0.93216966  0.53221368  1
  C  C49  1  0.43665786  0.91557801  0.45783980  1
  C  C50  1  0.42755884  0.98344240  0.42569300  1
  C  C51  1  0.49090098  0.06789844  0.46792009  1
  C  C52  1  0.56334214  0.08449009  0.54229397  1
  C  C53  1  0.57244116  0.01662570  0.57444077  1
  C  C54  1  0.48374399  0.45059851  0.39870975  1
  C  C55  1  0.43665792  0.54226236  0.45783822  1
  C  C56  1  0.45291393  0.59169790  0.55919536  1
  C  C57  1  0.51625601  0.54946959  0.60142402  1
  C  C58  1  0.56334208  0.45780574  0.54229555  1
  C  C59  1  0.54708607  0.40837020  0.44093841  1
  C  C60  1  0.07892016  0.56824510  0.55576467  1
  C  C61  1  0.06334208  0.54226236  0.45783822  1
  C  C62  1  0.98442192  0.47405131  0.40214043  1
  C  C63  1  0.92107984  0.43182300  0.44436910  1
  C  C64  1  0.93665792  0.45780574  0.54229555  1
  C  C65  1  0.01557808  0.52601679  0.59799333  1
  C  C66  1  0.98251715  0.55007900  0.94891765  1
  C  C67  1  0.93665721  0.45780699  0.91561056  1
  C  C68  1  0.95414006  0.40776205  0.96675979  1
  C  C69  1  0.01748285  0.44998910  0.05121612  1
  C  C70  1  0.06334279  0.54226110  0.08452321  1
  C  C71  1  0.04585994  0.59230605  0.03337398  1
  C  C72  1  0.54667719  0.56073565  0.09156491  1
  C  C73  1  0.43665721  0.54226110  0.08452321  1
  C  C74  1  0.38998002  0.48155951  0.99302519  1
  C  C75  1  0.45332281  0.43933245  0.90856886  1
  C  C76  1  0.56334279  0.45780699  0.91561056  1
  C  C77  1  0.61001998  0.51850859  0.00710858  1
  O  O78  1  0.34108664  0.53468474  0.19753286  1
  O  O79  1  0.34108664  0.66284767  0.46541166  1
  O  O80  1  0.34108664  0.80255429  0.33724883  1
  O  O81  1  0.34108664  0.66284392  0.19753039  1
  O  O82  1  0.34108664  0.80255608  0.46541054  1
  O  O83  1  0.34108664  0.53468669  0.33725241  1
  O  O84  1  0.15891336  0.53468473  0.19753286  1
  O  O85  1  0.15891336  0.66284767  0.46541166  1
  O  O86  1  0.15891336  0.80255429  0.33724883  1
  O  O87  1  0.15891336  0.66284392  0.19753039  1
  O  O88  1  0.15891336  0.80255608  0.46541054  1
  O  O89  1  0.15891336  0.53468669  0.33725241  1
  O  O90  1  0.25000727  0.66670444  0.33337110  1
  O  O91  1  0.84108664  0.46538336  0.80260091  1
  O  O92  1  0.84108664  0.33722043  0.53472211  1
  O  O93  1  0.84108664  0.19751381  0.66288494  1
  O  O94  1  0.84108664  0.33722418  0.80260337  1
  O  O95  1  0.84108664  0.19751201  0.53472323  1
  O  O96  1  0.84108665  0.46538141  0.66288136  1
  O  O97  1  0.65891336  0.46538336  0.80260091  1
  O  O98  1  0.65891336  0.33722043  0.53472211  1
  O  O99  1  0.65891336  0.19751380  0.66288494  1
  O  O100  1  0.65891336  0.33722417  0.80260337  1
  O  O101  1  0.65891336  0.19751201  0.53472322  1
  O  O102  1  0.65891336  0.46538141  0.66288136  1
  O  O103  1  0.75000727  0.33333333  0.66666667  1
