# generated using pymatgen
data_NdH2C7(NO3)2
_symmetry_space_group_name_H-M   'P 1'
_cell_length_a   10.98900000
_cell_length_b   11.94600000
_cell_length_c   19.40200000
_cell_angle_alpha   90.00000000
_cell_angle_beta   90.00000000
_cell_angle_gamma   90.00000000
_symmetry_Int_Tables_number   1
_chemical_formula_structural   NdH2C7(NO3)2
_chemical_formula_sum   'Nd8 H16 C56 N16 O48'
_cell_volume   2546.98967279
_cell_formula_units_Z   8
loop_
 _symmetry_equiv_pos_site_id
 _symmetry_equiv_pos_as_xyz
  1  'x, y, z'
loop_
 _atom_site_type_symbol
 _atom_site_label
 _atom_site_symmetry_multiplicity
 _atom_site_fract_x
 _atom_site_fract_y
 _atom_site_fract_z
 _atom_site_occupancy
  Nd  Nd0  1  0.13672000  0.34181000  0.01438000  1
  Nd  Nd1  1  0.61797000  0.52400000  0.22855000  1
  Nd  Nd2  1  0.86328000  0.65819000  0.51438000  1
  Nd  Nd3  1  0.38203000  0.47600000  0.72855000  1
  Nd  Nd4  1  0.36328000  0.84181000  0.01438000  1
  Nd  Nd5  1  0.88203000  0.02400000  0.22855000  1
  Nd  Nd6  1  0.63672000  0.15819000  0.51438000  1
  Nd  Nd7  1  0.11797000  0.97600000  0.72855000  1
  H  H8  1  0.34930000  0.49330000  0.12180000  1
  H  H9  1  0.23180000  0.24030000  0.28210000  1
  H  H10  1  0.87010000  0.39830000  0.12570000  1
  H  H11  1  0.00540000  0.75640000  0.11480000  1
  H  H12  1  0.65070000  0.50670000  0.62180000  1
  H  H13  1  0.76820000  0.75970000  0.78210000  1
  H  H14  1  0.12990000  0.60170000  0.62570000  1
  H  H15  1  0.99460000  0.24360000  0.61480000  1
  H  H16  1  0.15070000  0.99330000  0.12180000  1
  H  H17  1  0.26820000  0.74030000  0.28210000  1
  H  H18  1  0.62990000  0.89830000  0.12570000  1
  H  H19  1  0.49460000  0.25640000  0.11480000  1
  H  H20  1  0.84930000  0.00670000  0.62180000  1
  H  H21  1  0.73180000  0.25970000  0.78210000  1
  H  H22  1  0.37010000  0.10170000  0.62570000  1
  H  H23  1  0.50540000  0.74360000  0.61480000  1
  C  C24  1  0.32790000  0.43830000  0.15340000  1
  C  C25  1  0.36420000  0.35180000  0.25580000  1
  C  C26  1  0.25770000  0.28960000  0.24810000  1
  C  C27  1  0.19300000  0.30400000  0.18870000  1
  C  C28  1  0.08620000  0.22940000  0.17040000  1
  C  C29  1  0.44730000  0.33260000  0.31670000  1
  C  C30  1  0.89820000  0.47170000  0.12400000  1
  C  C31  1  0.87360000  0.65490000  0.15370000  1
  C  C32  1  0.97860000  0.68270000  0.11800000  1
  C  C33  1  0.04130000  0.59610000  0.08760000  1
  C  C34  1  0.16050000  0.61600000  0.05010000  1
  C  C35  1  0.79600000  0.74460000  0.18790000  1
  C  C36  1  0.79920000  0.56490000  0.35990000  1
  C  C37  1  0.67740000  0.61740000  0.38370000  1
  C  C38  1  0.67210000  0.56170000  0.65340000  1
  C  C39  1  0.63580000  0.64820000  0.75580000  1
  C  C40  1  0.74230000  0.71040000  0.74810000  1
  C  C41  1  0.80700000  0.69600000  0.68870000  1
  C  C42  1  0.91380000  0.77060000  0.67040000  1
  C  C43  1  0.55270000  0.66740000  0.81670000  1
  C  C44  1  0.10180000  0.52830000  0.62400000  1
  C  C45  1  0.12640000  0.34510000  0.65370000  1
  C  C46  1  0.02140000  0.31730000  0.61800000  1
  C  C47  1  0.95870000  0.40390000  0.58760000  1
  C  C48  1  0.83950000  0.38400000  0.55010000  1
  C  C49  1  0.20400000  0.25540000  0.68790000  1
  C  C50  1  0.20080000  0.43510000  0.85990000  1
  C  C51  1  0.32260000  0.38260000  0.88370000  1
  C  C52  1  0.17210000  0.93830000  0.15340000  1
  C  C53  1  0.13580000  0.85180000  0.25580000  1
  C  C54  1  0.24230000  0.78960000  0.24810000  1
  C  C55  1  0.30700000  0.80400000  0.18870000  1
  C  C56  1  0.41380000  0.72940000  0.17040000  1
  C  C57  1  0.05270000  0.83260000  0.31670000  1
  C  C58  1  0.60180000  0.97170000  0.12400000  1
  C  C59  1  0.62640000  0.15490000  0.15370000  1
  C  C60  1  0.52140000  0.18270000  0.11800000  1
  C  C61  1  0.45870000  0.09610000  0.08760000  1
  C  C62  1  0.33950000  0.11600000  0.05010000  1
  C  C63  1  0.70400000  0.24460000  0.18790000  1
  C  C64  1  0.70080000  0.06490000  0.35990000  1
  C  C65  1  0.82260000  0.11740000  0.38370000  1
  C  C66  1  0.82790000  0.06170000  0.65340000  1
  C  C67  1  0.86420000  0.14820000  0.75580000  1
  C  C68  1  0.75770000  0.21040000  0.74810000  1
  C  C69  1  0.69300000  0.19600000  0.68870000  1
  C  C70  1  0.58620000  0.27060000  0.67040000  1
  C  C71  1  0.94730000  0.16740000  0.81670000  1
  C  C72  1  0.39820000  0.02830000  0.62400000  1
  C  C73  1  0.37360000  0.84510000  0.65370000  1
  C  C74  1  0.47860000  0.81730000  0.61800000  1
  C  C75  1  0.54130000  0.90390000  0.58760000  1
  C  C76  1  0.66050000  0.88400000  0.55010000  1
  C  C77  1  0.29600000  0.75540000  0.68790000  1
  C  C78  1  0.29920000  0.93510000  0.85990000  1
  C  C79  1  0.17740000  0.88260000  0.88370000  1
  N  N80  1  0.22760000  0.37880000  0.14000000  1
  N  N81  1  0.39990000  0.42570000  0.20820000  1
  N  N82  1  0.00050000  0.49090000  0.08870000  1
  N  N83  1  0.83290000  0.54920000  0.15710000  1
  N  N84  1  0.77240000  0.62120000  0.64000000  1
  N  N85  1  0.60010000  0.57430000  0.70820000  1
  N  N86  1  0.99950000  0.50910000  0.58870000  1
  N  N87  1  0.16710000  0.45080000  0.65710000  1
  N  N88  1  0.27240000  0.87880000  0.14000000  1
  N  N89  1  0.10010000  0.92570000  0.20820000  1
  N  N90  1  0.49950000  0.99090000  0.08870000  1
  N  N91  1  0.66710000  0.04920000  0.15710000  1
  N  N92  1  0.72760000  0.12120000  0.64000000  1
  N  N93  1  0.89990000  0.07430000  0.70820000  1
  N  N94  1  0.50050000  0.00910000  0.58870000  1
  N  N95  1  0.33290000  0.95080000  0.65710000  1
  O  O96  1  0.04470000  0.23870000  0.11006000  1
  O  O97  1  0.05030000  0.16220000  0.21588000  1
  O  O98  1  0.54290000  0.39190000  0.31907000  1
  O  O99  1  0.41480000  0.26170000  0.35810000  1
  O  O100  1  0.20840000  0.53450000  0.01860000  1
  O  O101  1  0.20570000  0.71140000  0.05666000  1
  O  O102  1  0.70050000  0.71310000  0.21651000  1
  O  O103  1  0.83410000  0.84270000  0.18380000  1
  O  O104  1  0.88930000  0.57900000  0.39760000  1
  O  O105  1  0.79520000  0.51090000  0.30440000  1
  O  O106  1  0.67410000  0.65150000  0.44458000  1
  O  O107  1  0.59180000  0.62040000  0.34009000  1
  O  O108  1  0.95530000  0.76130000  0.61006000  1
  O  O109  1  0.94970000  0.83780000  0.71588000  1
  O  O110  1  0.45710000  0.60810000  0.81907000  1
  O  O111  1  0.58520000  0.73830000  0.85810000  1
  O  O112  1  0.79160000  0.46550000  0.51860000  1
  O  O113  1  0.79430000  0.28860000  0.55666000  1
  O  O114  1  0.29950000  0.28690000  0.71651000  1
  O  O115  1  0.16590000  0.15730000  0.68380000  1
  O  O116  1  0.11070000  0.42100000  0.89760000  1
  O  O117  1  0.20480000  0.48910000  0.80440000  1
  O  O118  1  0.32590000  0.34850000  0.94458000  1
  O  O119  1  0.40820000  0.37960000  0.84009000  1
  O  O120  1  0.45530000  0.73870000  0.11006000  1
  O  O121  1  0.44970000  0.66220000  0.21588000  1
  O  O122  1  0.95710000  0.89190000  0.31907000  1
  O  O123  1  0.08520000  0.76170000  0.35810000  1
  O  O124  1  0.29160000  0.03450000  0.01860000  1
  O  O125  1  0.29430000  0.21140000  0.05666000  1
  O  O126  1  0.79950000  0.21310000  0.21651000  1
  O  O127  1  0.66590000  0.34270000  0.18380000  1
  O  O128  1  0.61070000  0.07900000  0.39760000  1
  O  O129  1  0.70480000  0.01090000  0.30440000  1
  O  O130  1  0.82590000  0.15150000  0.44458000  1
  O  O131  1  0.90820000  0.12040000  0.34009000  1
  O  O132  1  0.54470000  0.26130000  0.61006000  1
  O  O133  1  0.55030000  0.33780000  0.71588000  1
  O  O134  1  0.04290000  0.10810000  0.81907000  1
  O  O135  1  0.91480000  0.23830000  0.85810000  1
  O  O136  1  0.70840000  0.96550000  0.51860000  1
  O  O137  1  0.70570000  0.78860000  0.55666000  1
  O  O138  1  0.20050000  0.78690000  0.71651000  1
  O  O139  1  0.33410000  0.65730000  0.68380000  1
  O  O140  1  0.38930000  0.92100000  0.89760000  1
  O  O141  1  0.29520000  0.98910000  0.80440000  1
  O  O142  1  0.17410000  0.84850000  0.94458000  1
  O  O143  1  0.09180000  0.87960000  0.84009000  1
