# generated using pymatgen
data_Li3Ni2C30(NO3)6
_symmetry_space_group_name_H-M   'P 1'
_cell_length_a   14.90400000
_cell_length_b   18.60500000
_cell_length_c   18.60500000
_cell_angle_alpha   120.00000000
_cell_angle_beta   90.00000000
_cell_angle_gamma   90.00000000
_symmetry_Int_Tables_number   1
_chemical_formula_structural   Li3Ni2C30(NO3)6
_chemical_formula_sum   'Li6 Ni4 C60 N12 O36'
_cell_volume   4467.79072593
_cell_formula_units_Z   2
loop_
 _symmetry_equiv_pos_site_id
 _symmetry_equiv_pos_as_xyz
  1  'x, y, z'
loop_
 _atom_site_type_symbol
 _atom_site_label
 _atom_site_symmetry_multiplicity
 _atom_site_fract_x
 _atom_site_fract_y
 _atom_site_fract_z
 _atom_site_occupancy
  Li  Li0  1  0.00000000  0.50000000  0.50000000  1
  Li  Li1  1  0.00000000  0.00000000  0.50000000  1
  Li  Li2  1  0.00000000  0.50000000  0.00000000  1
  Li  Li3  1  0.50000000  0.50000000  0.50000000  1
  Li  Li4  1  0.50000000  0.00000000  0.50000000  1
  Li  Li5  1  0.50000000  0.50000000  0.00000000  1
  Ni  Ni6  1  0.98000000  0.66666667  0.33333333  1
  Ni  Ni7  1  0.48000000  0.33333333  0.66666667  1
  Ni  Ni8  1  0.02000000  0.33333333  0.66666667  1
  Ni  Ni9  1  0.52000000  0.66666667  0.33333333  1
  C  C10  1  0.83150000  0.53500000  0.30250000  1
  C  C11  1  0.83230000  0.47010000  0.22020000  1
  C  C12  1  0.94630000  0.55730000  0.39780000  1
  C  C13  1  0.03260000  0.60560000  0.43990000  1
  C  C14  1  0.83150000  0.76750000  0.46500000  1
  C  C15  1  0.83230000  0.75010000  0.52990000  1
  C  C16  1  0.94630000  0.84050000  0.44270000  1
  C  C17  1  0.03260000  0.83430000  0.39440000  1
  C  C18  1  0.83150000  0.69750000  0.23250000  1
  C  C19  1  0.83230000  0.77980000  0.24990000  1
  C  C20  1  0.94630000  0.60220000  0.15950000  1
  C  C21  1  0.03260000  0.56010000  0.16570000  1
  C  C22  1  0.33150000  0.46500000  0.69750000  1
  C  C23  1  0.33230000  0.52990000  0.77980000  1
  C  C24  1  0.44630000  0.44270000  0.60220000  1
  C  C25  1  0.53260000  0.39440000  0.56010000  1
  C  C26  1  0.33150000  0.23250000  0.53500000  1
  C  C27  1  0.33230000  0.24990000  0.47010000  1
  C  C28  1  0.44630000  0.15950000  0.55730000  1
  C  C29  1  0.53260000  0.16570000  0.60560000  1
  C  C30  1  0.33150000  0.30250000  0.76750000  1
  C  C31  1  0.33230000  0.22020000  0.75010000  1
  C  C32  1  0.44630000  0.39780000  0.84050000  1
  C  C33  1  0.53260000  0.43990000  0.83430000  1
  C  C34  1  0.16850000  0.46500000  0.69750000  1
  C  C35  1  0.16770000  0.52990000  0.77980000  1
  C  C36  1  0.05370000  0.44270000  0.60220000  1
  C  C37  1  0.96740000  0.39440000  0.56010000  1
  C  C38  1  0.16850000  0.23250000  0.53500000  1
  C  C39  1  0.16770000  0.24990000  0.47010000  1
  C  C40  1  0.05370000  0.15950000  0.55730000  1
  C  C41  1  0.96740000  0.16570000  0.60560000  1
  C  C42  1  0.16850000  0.30250000  0.76750000  1
  C  C43  1  0.16770000  0.22020000  0.75010000  1
  C  C44  1  0.05370000  0.39780000  0.84050000  1
  C  C45  1  0.96740000  0.43990000  0.83430000  1
  C  C46  1  0.66850000  0.53500000  0.30250000  1
  C  C47  1  0.66770000  0.47010000  0.22020000  1
  C  C48  1  0.55370000  0.55730000  0.39780000  1
  C  C49  1  0.46740000  0.60560000  0.43990000  1
  C  C50  1  0.66850000  0.76750000  0.46500000  1
  C  C51  1  0.66770000  0.75010000  0.52990000  1
  C  C52  1  0.55370000  0.84050000  0.44270000  1
  C  C53  1  0.46740000  0.83430000  0.39440000  1
  C  C54  1  0.66850000  0.69750000  0.23250000  1
  C  C55  1  0.66770000  0.77980000  0.24990000  1
  C  C56  1  0.55370000  0.60220000  0.15950000  1
  C  C57  1  0.46740000  0.56010000  0.16570000  1
  C  C58  1  0.75000000  0.56580000  0.34360000  1
  C  C59  1  0.75000000  0.43880000  0.18000000  1
  C  C60  1  0.75000000  0.77780000  0.43420000  1
  C  C61  1  0.75000000  0.74120000  0.56120000  1
  C  C62  1  0.75000000  0.65640000  0.22220000  1
  C  C63  1  0.75000000  0.82000000  0.25880000  1
  C  C64  1  0.25000000  0.43420000  0.65640000  1
  C  C65  1  0.25000000  0.56120000  0.82000000  1
  C  C66  1  0.25000000  0.22220000  0.56580000  1
  C  C67  1  0.25000000  0.25880000  0.43880000  1
  C  C68  1  0.25000000  0.34360000  0.77780000  1
  C  C69  1  0.25000000  0.18000000  0.74120000  1
  N  N70  1  0.91340000  0.57420000  0.34320000  1
  N  N71  1  0.91340000  0.76900000  0.42580000  1
  N  N72  1  0.91340000  0.65680000  0.23100000  1
  N  N73  1  0.41340000  0.42580000  0.65680000  1
  N  N74  1  0.41340000  0.23100000  0.57420000  1
  N  N75  1  0.41340000  0.34320000  0.76900000  1
  N  N76  1  0.08660000  0.42580000  0.65680000  1
  N  N77  1  0.08660000  0.23100000  0.57420000  1
  N  N78  1  0.08660000  0.34320000  0.76900000  1
  N  N79  1  0.58660000  0.57420000  0.34320000  1
  N  N80  1  0.58660000  0.76900000  0.42580000  1
  N  N81  1  0.58660000  0.65680000  0.23100000  1
  O  O82  1  0.91710000  0.50630000  0.41910000  1
  O  O83  1  0.06780000  0.59070000  0.49260000  1
  O  O84  1  0.06220000  0.65610000  0.41940000  1
  O  O85  1  0.91710000  0.91280000  0.49370000  1
  O  O86  1  0.06780000  0.90190000  0.40930000  1
  O  O87  1  0.06220000  0.76330000  0.34390000  1
  O  O88  1  0.91710000  0.58090000  0.08720000  1
  O  O89  1  0.06780000  0.50740000  0.09810000  1
  O  O90  1  0.06220000  0.58060000  0.23670000  1
  O  O91  1  0.41710000  0.49370000  0.58090000  1
  O  O92  1  0.56780000  0.40930000  0.50740000  1
  O  O93  1  0.56220000  0.34390000  0.58060000  1
  O  O94  1  0.41710000  0.08720000  0.50630000  1
  O  O95  1  0.56780000  0.09810000  0.59070000  1
  O  O96  1  0.56220000  0.23670000  0.65610000  1
  O  O97  1  0.41710000  0.41910000  0.91280000  1
  O  O98  1  0.56780000  0.49260000  0.90190000  1
  O  O99  1  0.56220000  0.41940000  0.76330000  1
  O  O100  1  0.08290000  0.49370000  0.58090000  1
  O  O101  1  0.93220000  0.40930000  0.50740000  1
  O  O102  1  0.93780000  0.34390000  0.58060000  1
  O  O103  1  0.08290000  0.08720000  0.50630000  1
  O  O104  1  0.93220000  0.09810000  0.59070000  1
  O  O105  1  0.93780000  0.23670000  0.65610000  1
  O  O106  1  0.08290000  0.41910000  0.91280000  1
  O  O107  1  0.93220000  0.49260000  0.90190000  1
  O  O108  1  0.93780000  0.41940000  0.76330000  1
  O  O109  1  0.58290000  0.50630000  0.41910000  1
  O  O110  1  0.43220000  0.59070000  0.49260000  1
  O  O111  1  0.43780000  0.65610000  0.41940000  1
  O  O112  1  0.58290000  0.91280000  0.49370000  1
  O  O113  1  0.43220000  0.90190000  0.40930000  1
  O  O114  1  0.43780000  0.76330000  0.34390000  1
  O  O115  1  0.58290000  0.58090000  0.08720000  1
  O  O116  1  0.43220000  0.50740000  0.09810000  1
  O  O117  1  0.43780000  0.58060000  0.23670000  1
