data_acs_v1-6c_Al_1_1-1B_2NH2_Ch
_audit_creation_date              2021-04-19
_audit_creation_method            'tobacco_3.0'
_symmetry_space_group_name_H-M    'P1'
_symmetry_Int_Tables_number       1
_symmetry_cell_setting            triclinic
loop_
_symmetry_equiv_pos_as_xyz
  x,y,z
_cell_length_a                    16.971378050953426
_cell_length_b                    16.971380976355867
_cell_length_c                    13.458412453325916
_cell_angle_alpha                 89.99995044747759
_cell_angle_beta                  90.00004884997769
_cell_angle_gamma                 120.00086896316286
loop_
_atom_site_label
_atom_site_type_symbol
_atom_site_fract_x
_atom_site_fract_y
_atom_site_fract_z
_atom_site_charge
O1         O    0.3372397031    0.8056505440    0.6568462966          0.6353
O2         O    0.1943526589    0.5316922419    0.6568463670          0.6353
O3         O    0.4683007703    0.6627640844    0.6568464406          0.6353
O4         O    0.4683094769    0.8056532951    0.6568463650          0.6353
O5         O    0.3372323429    0.5316936308    0.6568464416          0.6353
O6         O    0.1943513123    0.6627599444    0.6568462976          0.6353
C7         C    0.4173756505    0.8348542480    0.6238855260          0.6353
C8         C    0.1651496525    0.5826243507    0.6238855279          0.6353
C9         C    0.4173746105    0.5826214916    0.6238856595          0.6353
O10        O    0.3372397456    0.8056504995    0.8431535604          0.6353
O11        O    0.1943527014    0.5316921975    0.8431536309          0.6353
O12        O    0.4683008129    0.6627640399    0.8431537045          0.6353
O13        O    0.4683095195    0.8056532506    0.8431536288          0.6353
O14        O    0.3372323855    0.5316935864    0.8431537054          0.6353
O15        O    0.1943513549    0.6627598999    0.8431535615          0.6353
Al16      Al    0.2742877591    0.7257016072    0.7499925077             1.0
Al17      Al    0.2742860259    0.5486777334    0.7499926014             1.0
Al18      Al    0.4513144304    0.7257088747    0.7499926001             1.0
O19        O    0.3332983398    0.6666938039    0.7499925697          0.6353
C20        C    0.4173757082    0.8348541878    0.8761143837          0.6353
C21        C    0.1651497101    0.5826242905    0.8761143856          0.6353
C22        C    0.4173746682    0.5826214314    0.8761145173          0.6353
O23        O    0.6626945917    0.1944151280    0.1568464408          0.6353
O24        O    0.8055816359    0.4683734301    0.1568463703          0.6353
O25        O    0.5316335245    0.3373015876    0.1568462967          0.6353
O26        O    0.5316248179    0.1944123769    0.1568463724          0.6353
O27        O    0.6627019519    0.4683720412    0.1568462958          0.6353
O28        O    0.8055829825    0.3373057277    0.1568464397          0.6353
C29        C    0.5825586292    0.1652114398    0.1238856175          0.6353
C30        C    0.8347846273    0.4174413370    0.1238856156          0.6353
C31        C    0.5825596692    0.4174441961    0.1238854839          0.6353
O32        O    0.6626946343    0.1944150836    0.3431537046          0.6353
O33        O    0.8055816785    0.4683733856    0.3431536342          0.6353
O34        O    0.5316335671    0.3373015432    0.3431535606          0.6353
O35        O    0.5316248605    0.1944123325    0.3431536362          0.6353
O36        O    0.6627019945    0.4683719967    0.3431535596          0.6353
O37        O    0.8055830251    0.3373056832    0.3431537036          0.6353
Al38      Al    0.7256465783    0.2743640204    0.2499926329             1.0
Al39      Al    0.7256483115    0.4513878942    0.2499925392             1.0
Al40      Al    0.5486199069    0.2743567529    0.2499925406             1.0
O41        O    0.6666359976    0.3333718237    0.2499925709          0.6353
C42        C    0.5825586869    0.1652113796    0.3761144752          0.6353
C43        C    0.8347846849    0.4174412768    0.3761144733          0.6353
C44        C    0.5825597269    0.4174441360    0.3761143417          0.6353
C115       C    0.0824088659    0.5627237087    0.0413912443         -0.6249
C116       C    0.0787764517    0.5394375536    0.9408936544         -0.5056
C117       C    0.9943761464    0.4747480373    0.8970683570          0.0007
C118       C    0.9175507339    0.4373223709    0.9586041277         -0.6194
C119       C    0.9211578857    0.4606280740    0.0591063468         -0.5118
C120       C    0.0055679277    0.5253133933    0.1029521079          0.0115
N121       N    0.0129647617    0.5545608419    0.2001294100         -1.2543
H122       H    0.1475088379    0.6128085815    0.0722822176         -0.1773
H123       H    0.8524585356    0.3872067958    0.9277167515         -0.1774
N124       N    0.9869675454    0.4453185298    0.7998059992         -1.2446
H125       H    0.0754602709    0.5835442445    0.2313279391         -0.0037
H126       H    0.9598141871    0.5161759736    0.2456909925          0.0473
H127       H    0.0400249353    0.4841624962    0.7542974072          0.0435
H128       H    0.9245187851    0.4171353185    0.7685778008         -0.0076
C101       C    0.9417446045    0.5348590949    0.5028807397         -0.6249
C102       C    0.9211578410    0.4606280091    0.4408936420         -0.5056
C103       C    0.9805576318    0.4240009121    0.4368212956          0.0007
C104       C    0.0581905991    0.4652206055    0.4970730828         -0.6194
C105       C    0.0787764964    0.5394376184    0.5591063592         -0.5118
C106       C    0.0193830952    0.5760871232    0.5631735259          0.0115
N107       N    0.0333800879    0.6461478421    0.6263332086         -1.2543
H108       H    0.8947304593    0.5605997676    0.5050137655         -0.1773
H109       H    0.1052228540    0.4394997876    0.4949024945         -0.1774
N110       N    0.9666518308    0.3539488970    0.3734502531         -1.2446
H111       H    0.0011853873    0.6809194122    0.6093494031         -0.0037
H112       H    0.0962839357    0.6828935812    0.6563852957          0.0473
H113       H    0.9035074200    0.3170033033    0.3439818836          0.0435
H114       H    0.9982986742    0.3188014646    0.3912012549         -0.0076
C87        C    0.4447795756    0.0213027547    0.4441188272         -0.6249
C88        C    0.5393725954    0.0788415344    0.4408926963         -0.5056
C89        C    0.5972795234    0.0580613051    0.4982330088          0.0007
C90        C    0.5551630448    0.9788025779    0.5558995094         -0.6194
C91        C    0.4605617419    0.9212240932    0.5591073049         -0.5118
C92        C    0.4026375582    0.9420072826    0.5017766799          0.0115
N93        N    0.3093174505    0.8857998622    0.4978137432         -1.2543
H94        H    0.4026310514    0.0385391879    0.3988995132         -0.1773
H95        H    0.5973160323    0.9615921675    0.6011514380         -0.1774
N96        N    0.6907216400    0.1144147514    0.5023617986         -1.2446
H97        H    0.2723979435    0.9140958956    0.4746291813         -0.0037
H98        H    0.2807541844    0.8377468598    0.5514807896          0.0473
H99        H    0.7191233941    0.1620525080    0.4482356358          0.0435
H100       H    0.7274603834    0.0856564056    0.5247072356         -0.0076
C73        C    0.4983198323    0.0078464570    0.8978722719         -0.6249
C74        C    0.4605618072    0.9212241399    0.9408927092         -0.5056
C75        C    0.4618787205    0.9119255415    0.0460621399          0.0007
C76        C    0.5016389832    0.9922011977    0.1021115077         -0.6194
C77        C    0.5393725302    0.0788414877    0.0591072920         -0.5118
C78        C    0.5380747414    0.0881524200    0.9539232291          0.0115
N79        N    0.5699982793    0.1711978942    0.9072843413         -1.2543
H80        H    0.4954732159    0.0125901642    0.8177017755         -0.1773
H81        H    0.5045182002    0.9874525233    0.1822811375         -0.1774
N82        N    0.4300659626    0.8287864467    0.0927835495         -1.2446
H83        H    0.5853224864    0.1742129234    0.8343112040         -0.0037
H84        H    0.6104466331    0.2273982702    0.9479959408          0.0473
H85        H    0.3891997450    0.7727402212    0.0520280094          0.0435
H86        H    0.4140227879    0.8258447634    0.1655360698         -0.0076
C59        C    0.4080752637    0.4509761147    0.9784134058         -0.6249
C60        C    0.4605620232    0.5394361068    0.9408938412         -0.5056
C61        C    0.5553687186    0.5910712079    0.9626258847          0.0007
C62        C    0.5918427239    0.5491140504    0.0216068125         -0.6194
C63        C    0.5393723142    0.4606295208    0.0591061600         -0.5118
C64        C    0.4445485175    0.4089853159    0.0373918150          0.0115
N65        N    0.3900297423    0.3199360209    0.0678993201         -1.2543
H66        H    0.3363035621    0.4131442032    0.9597569203         -0.1773
H67        H    0.6636093518    0.5869669999    0.0402960553         -0.1774
N68        N    0.6099542100    0.6803055710    0.9322402307         -1.2446
H69        H    0.3221999417    0.2957606474    0.0691394421         -0.0037
H70        H    0.4150311564    0.2974066601    0.1223961731          0.0473
H71        H    0.5849597447    0.7024493052    0.8773202928          0.0435
H72        H    0.6776849616    0.7039606217    0.9302262181         -0.0076
C45        C    0.5573084321    0.5494544998    0.4228903093         -0.6249
C46        C    0.5393722683    0.4606295655    0.4408938677         -0.5056
C47        C    0.4805868871    0.4087801116    0.5202481491          0.0007
C48        C    0.4426652928    0.4506145014    0.5771221600         -0.6194
C49        C    0.4605620691    0.5394360620    0.5591061335         -0.5118
C50        C    0.5193670054    0.5913064785    0.4797545950          0.0115
N51        N    0.5361907506    0.6774045558    0.4550119931         -1.2543
H52        H    0.6016423148    0.5868121592    0.3613561425         -0.1773
H53        H    0.3983622610    0.4132648016    0.6386839635         -0.1774
N54        N    0.4638518508    0.3226207709    0.5451628881         -1.2446
H55        H    0.5925355133    0.7165185799    0.4142332864         -0.0037
H56        H    0.5195684083    0.7102519100    0.5064256583          0.0473
H57        H    0.4800698186    0.2897554616    0.4933359182 0.043699999999999996
H58        H    0.4069902996    0.2834123854    0.5851658567         -0.0076
loop_
_geom_bond_atom_site_label_1
_geom_bond_atom_site_label_2
_geom_bond_distance
_geom_bond_site_symmetry_2
_ccdc_geom_bond_type
O1         Al16 1.762       .   S
O1           C7 1.272       .   A
O2         Al17 1.762       .   S
O2           C8 1.272       .   A
O3         Al18 1.762       .   S
O3           C9 1.272       .   A
O4         Al18 1.762       .   S
O4           C7 1.272       .   A
O5         Al17 1.762       .   S
O5           C9 1.272       .   A
O6         Al16 1.762       .   S
O6           C8 1.272       .   A
C7          C91 1.540       .   S
C8         C105 1.540       .   S
C9          C49 1.540       .   S
O10        Al16 1.762       .   S
O10         C20 1.272       .   A
O11        Al17 1.762       .   S
O11         C21 1.272       .   A
O12        Al18 1.762       .   S
O12         C22 1.272       .   A
O13        Al18 1.762       .   S
O13         C20 1.272       .   A
O14        Al17 1.762       .   S
O14         C22 1.272       .   A
O15        Al16 1.762       .   S
O15         C21 1.272       .   A
Al16        O19 1.735       .   S
Al17        O19 1.735       .   S
Al18        O19 1.735       .   S
C20         C74 1.540       .   S
C21        C116 1.540       .   S
C22         C60 1.540       .   S
O23        Al38 1.762       .   S
O23         C29 1.272       .   A
O24        Al39 1.762       .   S
O24         C30 1.272       .   A
O25        Al40 1.762       .   S
O25         C31 1.272       .   A
O26        Al40 1.762       .   S
O26         C29 1.272       .   A
O27        Al39 1.762       .   S
O27         C31 1.272       .   A
O28        Al38 1.762       .   S
O28         C30 1.272       .   A
C29         C77 1.540   1_544   S
C30        C119 1.540   1_654   S
C31         C63 1.540   1_554   S
O32        Al38 1.762       .   S
O32         C42 1.272       .   A
O33        Al39 1.762       .   S
O33         C43 1.272       .   A
O34        Al40 1.762       .   S
O34         C44 1.272       .   A
O35        Al40 1.762       .   S
O35         C42 1.272       .   A
O36        Al39 1.762       .   S
O36         C44 1.272       .   A
O37        Al38 1.762       .   S
O37         C43 1.272       .   A
Al38        O41 1.735       .   S
Al39        O41 1.735       .   S
Al40        O41 1.735       .   S
C42         C88 1.540   1_545   S
C43        C102 1.540   1_655   S
C44         C46 1.540       .   S
C115       C116 1.402       .   A
C115       C120 1.401       .   A
C115       H122 1.085       .   S
C116       C117 1.426       .   A
C117       C118 1.400       .   A
C117       N124 1.384       .   S
C118       C119 1.402       .   A
C118       H123 1.085       .   S
C119       C120 1.426       .   A
C120       N121 1.382       .   S
N121       H125 1.011       .   S
N121       H126 1.013       .   S
N124       H127 1.013       .   S
N124       H128 1.011       .   S
C101       C102 1.402       .   A
C101       C106 1.401       .   A
C101       H108 1.085       .   S
C102       C103 1.426       .   A
C103       C104 1.400       .   A
C103       N110 1.384       .   S
C104       C105 1.402       .   A
C104       H109 1.085       .   S
C105       C106 1.426       .   A
C106       N107 1.382       .   S
N107       H111 1.011       .   S
N107       H112 1.013       .   S
N110       H113 1.013       .   S
N110       H114 1.011       .   S
C87         C88 1.402       .   A
C87         C92 1.401       .   A
C87         H94 1.085       .   S
C88         C89 1.426       .   A
C89         C90 1.400       .   A
C89         N96 1.384       .   S
C90         C91 1.402       .   A
C90         H95 1.085       .   S
C91         C92 1.426       .   A
C92         N93 1.382       .   S
N93         H97 1.011       .   S
N93         H98 1.013       .   S
N96         H99 1.013       .   S
N96        H100 1.011       .   S
C73         C74 1.402       .   A
C73         C78 1.401       .   A
C73         H80 1.085       .   S
C74         C75 1.426       .   A
C75         C76 1.400       .   A
C75         N82 1.384       .   S
C76         C77 1.402       .   A
C76         H81 1.085       .   S
C77         C78 1.426       .   A
C78         N79 1.382       .   S
N79         H83 1.011       .   S
N79         H84 1.013       .   S
N82         H85 1.013       .   S
N82         H86 1.011       .   S
C59         C60 1.402       .   A
C59         C64 1.401       .   A
C59         H66 1.085       .   S
C60         C61 1.426       .   A
C61         C62 1.400       .   A
C61         N68 1.384       .   S
C62         C63 1.402       .   A
C62         H67 1.085       .   S
C63         C64 1.426       .   A
C64         N65 1.382       .   S
N65         H69 1.011       .   S
N65         H70 1.013       .   S
N68         H71 1.013       .   S
N68         H72 1.011       .   S
C45         C46 1.402       .   A
C45         C50 1.401       .   A
C45         H52 1.085       .   S
C46         C47 1.426       .   A
C47         C48 1.400       .   A
C47         N54 1.384       .   S
C48         C49 1.402       .   A
C48         H53 1.085       .   S
C49         C50 1.426       .   A
C50         N51 1.382       .   S
N51         H55 1.011       .   S
N51         H56 1.013       .   S
N54         H57 1.013       .   S
N54         H58 1.011       .   S
