data_acs_v1-6c_Al_1_Ch_1-1B_2NO2_Ch
_audit_creation_date              2021-04-19
_audit_creation_method            'tobacco_3.0'
_symmetry_space_group_name_H-M    'P1'
_symmetry_Int_Tables_number       1
_symmetry_cell_setting            triclinic
loop_
_symmetry_equiv_pos_as_xyz
  x,y,z
_cell_length_a                    17.06518198712827
_cell_length_b                    17.013910185016105
_cell_length_c                    13.990454661879175
_cell_angle_alpha                 89.53570746080068
_cell_angle_beta                  90.28788896820669
_cell_angle_gamma                 119.55801379955189
loop_
_atom_site_label
_atom_site_type_symbol
_atom_site_fract_x
_atom_site_fract_y
_atom_site_fract_z
_atom_site_charge
O1         O    0.3336414857    0.8039077980    0.8527300037           -0.82
C2         C    0.4130783215    0.5842341702    0.6200079642          0.9735
O3         O    0.4688447591    0.6487073548    0.6645336535         -0.7112
O4         O    0.4701383049    0.7999230362    0.6474488045         -0.7471
Al5       Al    0.4574662510    0.7269775489    0.7550179816          1.4898
C6         C    0.4226629221    0.8343186333    0.6227873452          0.9261
O7         O    0.2013421946    0.6663950630    0.6400481548         -0.8093
O8         O    0.1960716592    0.5325400194    0.8617059216         -0.7449
Al9       Al    0.2732041782    0.7284482997    0.7460045419          1.9012
O10        O    0.1798677868    0.5271011462    0.6690989252         -0.7356
O11        O    0.3501134158    0.5266603385    0.8473668382         -0.7341
O12        O    0.3320563078    0.5293063609    0.6518429171         -0.7907
O13        O    0.4697034267    0.6652233506    0.8574540623         -0.7727
O14        O    0.3329685425    0.6651277795    0.7532066769          -1.134
O15        O    0.4701730724    0.8202071254    0.8411832838          -0.726
C16        C    0.4153453749    0.8383983630    0.8771775017          0.9812
C17        C    0.1644706510    0.5815823497    0.6241599381          0.9451
Al18      Al    0.2723509876    0.5415995477    0.7573065572          1.5556
O19        O    0.3500991326    0.8191665136    0.6574448835         -0.7722
C20        C    0.4249333015    0.5812571305    0.8797152945          0.9868
C21        C    0.1593094291    0.5804093533    0.8761519564          0.9356
O22        O    0.1801085327    0.6535448006    0.8294052994         -0.8254
O23        O    0.8043039663    0.3341718312    0.1470207482           -0.82
C24        C    0.5850915939    0.4137883888    0.3800068745          0.9735
O25        O    0.6495300319    0.4697606925    0.3352567084         -0.7112
O26        O    0.8000999287    0.4707117488    0.3520565011         -0.7471
Al27      Al    0.7276889224    0.4584051874    0.2446467713          1.4898
C28        C    0.8342003607    0.4229142468    0.3767420656          0.9261
O29        O    0.6665452561    0.2010849206    0.3602067756         -0.8093
O30        O    0.5337677544    0.1966181886    0.1388080341         -0.7449
Al31      Al    0.7287589250    0.2733762489    0.2540002098          1.9012
O32        O    0.5278383636    0.1798777382    0.3314562486         -0.7356
O33        O    0.5281872642    0.3512556352    0.1528716790         -0.7341
O34        O    0.5302993677    0.3326308861    0.3484251622         -0.7907
O35        O    0.6664619298    0.4710726502    0.1423029092         -0.7727
O36        O    0.6658308270    0.3335267731    0.2468052777          -1.134
O37        O    0.8207851845    0.4711909324    0.1582831146          -0.726
C38        C    0.8388823440    0.4161961122    0.1223566870          0.9812
C39        C    0.5819582730    0.1641962593    0.3763222205          0.9451
Al40      Al    0.5426852166    0.2729246871    0.2430490831          1.5556
O41        O    0.8190485817    0.3501758636    0.3422476538         -0.7722
C42        C    0.5827970701    0.4263474619    0.1202818324          0.9868
C43        C    0.5814069630    0.1596477111    0.1243408021          0.9356
O44        O    0.6541750318    0.1802659562    0.1709122534         -0.8254
C115       C    0.9878205240    0.4330733948    0.0672887512         -0.1247
C116       C    0.9218061468    0.4586931016    0.0586409980          0.0454
C117       C    0.9350041187    0.5243552969    0.9898044873         -0.0776
C118       C    0.0100683781    0.5629616854    0.9305925553          -0.085
C119       C    0.0763856263    0.5379123640    0.9398676455         -0.0305
C120       C    0.0630803610    0.4718961637    0.0082270087          0.0376
N121       N    0.1259605100    0.4359364226    0.0159694844          0.6627
H122       H    0.9798865237    0.3818428409    0.1188638442          0.1517
H123       H    0.0179640200    0.6133356216    0.8777171387          0.1488
N124       N    0.8718077747    0.5600295145    0.9796036245          0.7398
O125       O    0.1374782604    0.4127193302    0.0957949915         -0.3948
O126       O    0.1600394487    0.4294644623    0.9414329262         -0.3942
O127       O    0.8644114628    0.5995550625    0.0488199826         -0.4012
O128       O    0.8358193541    0.5509367104    0.9013417535         -0.4019
C101       C    0.0527133600    0.4612492288    0.5065296706         -0.1247
C102       C    0.0773801663    0.5397424313    0.5589171868          0.0454
C103       C    0.0225594529    0.5794103049    0.5513238961         -0.0776
C104       C    0.9454386126    0.5427260916    0.4949712509          -0.085
C105       C    0.9212908454    0.4647541651    0.4419848170         -0.0305
C106       C    0.9756783025    0.4246732169    0.4499074520          0.0376
N107       N    0.9497879159    0.3376286438    0.4031842049          0.6627
H108       H    0.0926159936    0.4277953209    0.5110795986          0.1517
H109       H    0.9042662251    0.5749604853    0.4910732148          0.1488
N110       N    0.0463785913    0.6657501314    0.5991386628          0.7398
O111       O    0.0110018194    0.3253490196    0.3751812157         -0.3948
O112       O    0.8689014387    0.2829040659    0.3983516428         -0.3942
O113       O    0.1169271378    0.7319898804    0.5741028063         -0.4012
O114       O    0.9913985505    0.6644771645    0.6560633415         -0.4019
C87        C    0.4094159193    0.9501646424    0.5145253121         -0.1247
C88        C    0.4644189194    0.9207892629    0.5581815859          0.0454
C89        C    0.5573626134    0.9713772778    0.5417782475         -0.0776
C90        C    0.5952900265    0.0488832891    0.4852106504          -0.085
C91        C    0.5402022756    0.0777256297    0.4409279798         -0.0305
C92        C    0.4473343652    0.0275822516    0.4576818708          0.0376
N93        N    0.3859229781    0.0586638572    0.4206679696          0.6627
H94        H    0.3372882252    0.9136483299    0.5260827225          0.1517
H95        H    0.6676017912    0.0867053722    0.4743704589          0.1488
N96        N    0.6203063935    0.9423416494    0.5798250029          0.7398
O97        O    0.3093467152    0.0003292934    0.3986251120         -0.3948
O98        O    0.4152603414    0.1406541753    0.4173466152         -0.3942
O99        O    0.6096800454    0.8698167052    0.5512821403         -0.4012
O100       O    0.6803016570    0.9953273309    0.6327715837         -0.4019
C73        C    0.5470730619    0.9567260329    0.9737624129         -0.1247
C74        C    0.4584686692    0.9218212085    0.9413614944          0.0454
C75        C    0.4112594763    0.9656457770    0.9696925345         -0.0776
C76        C    0.4500236447    0.0418792159    0.0271152758          -0.085
C77        C    0.5382836686    0.0762248656    0.0601568094         -0.0305
C78        C    0.5857924847    0.0328631152    0.0314627009          0.0376
N79        N    0.6819210890    0.0702607346    0.0561196078          0.6627
H80        H    0.5863808672    0.9255526951    0.9527658951          0.1517
H81        H    0.4116674792    0.0744095595    0.0473487966          0.1488
N82        N    0.3153468212    0.9302576593    0.9441344291          0.7398
O83        O    0.7089604283    0.0161441972    0.0690755570         -0.3948
O84        O    0.7282720956    0.1529376707    0.0590654737         -0.3942
O85        O    0.2617496430    0.8551310875    0.9752516803         -0.4012
O86        O    0.2972836733    0.9808994704    0.8981579686         -0.4019
C59        C    0.5474381177    0.4605829270    0.9605284642         -0.1247
C60        C    0.5432356151    0.4651686046    0.0599946471          0.0454
C61        C    0.4991463254    0.5090257555    0.0975229147         -0.0776
C62        C    0.4595600694    0.5463394534    0.0393804366          -0.085
C63        C    0.4644947566    0.5424359878    0.9400024798         -0.0305
C64        C    0.5080542668    0.4981554916    0.9023239955          0.0376
N65        N    0.5085462237    0.4839479707    0.7983332749          0.6627
H66        H    0.5800267267    0.4264593842    0.9284476227          0.1517
H67        H    0.4255686492    0.5794587777    0.0708349827          0.1488
N68        N    0.4963441845    0.5224024760    0.2016886802          0.7398
O69        O    0.5750048916    0.4838432383    0.7651448446         -0.3948
O70        O    0.4411923898    0.4706378391    0.7532247903         -0.3942
O71        O    0.5689497037    0.5685718986    0.2414401023         -0.4012
O72        O    0.4215468607    0.4899920507    0.2382266564         -0.4019
C45        C    0.5311108664    0.5319871887    0.4084053337         -0.1247
C46        C    0.5391918383    0.4592698776    0.4440483942          0.0454
C47        C    0.5065186137    0.4276983404    0.5362190851         -0.0776
C48        C    0.4662931618    0.4655776167    0.5913034885          -0.085
C49        C    0.4589780771    0.5387526814    0.5559664445         -0.0305
C50        C    0.4910940887    0.5700784188    0.4636323164          0.0376
N51        N    0.4780433048    0.6414718984    0.4181451020          0.6627
H52        H    0.5545861879    0.5579391428    0.3370973711          0.1517
H53        H    0.4413274341    0.4391786354    0.6622516305          0.1488
N54        N    0.5173372951    0.3549535015    0.5824030967          0.7398
O55        O    0.5365892278    0.6931659081    0.3624275663         -0.3948
O56        O    0.4082117999    0.6421367458    0.4373375442         -0.3942
O57        O    0.5947514867    0.3708883771    0.5962907741         -0.4012
O58        O    0.4481101836    0.2869521077    0.6070466255         -0.4019
loop_
_geom_bond_atom_site_label_1
_geom_bond_atom_site_label_2
_geom_bond_distance
_geom_bond_site_symmetry_2
_ccdc_geom_bond_type
O1          C16 1.264       .   A
O1          Al9 1.910       .   S
C2          O12 1.307       .   A
C2           O3 1.213       .   A
C2          C49 1.622       .   S
O3          Al5 1.923       .   S
O4          Al5 1.887       .   S
O4           C6 1.257       .   A
Al5         O13 1.841       .   S
Al5         O14 1.849       .   S
Al5         O15 1.925       .   S
C6          O19 1.234       .   A
C6          C88 1.562       .   S
O7          Al9 1.883       .   S
O7          C17 1.279       .   A
O8         Al18 1.915       .   S
O8          C21 1.267       .   A
Al9         O14 1.814       .   S
Al9         O22 1.873       .   S
Al9         O19 1.904       .   S
O10        Al18 1.918       .   S
O10         C17 1.246       .   A
O11         C20 1.236       .   A
O11        Al18 1.930       .   S
O12        Al18 1.868       .   S
O13         C20 1.281       .   A
O14        Al18 1.829       .   S
O15         C16 1.232       .   A
C16         C74 1.532       .   S
C17        C102 1.582       .   S
C20         C63 1.424       .   S
C21         O22 1.287       .   A
C21        C119 1.521       .   S
O23         C38 1.264       .   A
O23        Al31 1.910       .   S
C24         O34 1.307       .   A
C24         O25 1.213       .   A
C24         C46 1.622       .   S
O25        Al27 1.923       .   S
O26        Al27 1.887       .   S
O26         C28 1.257       .   A
Al27        O35 1.841       .   S
Al27        O36 1.849       .   S
Al27        O37 1.925       .   S
C28         O41 1.234       .   A
C28        C105 1.582   1_655   S
O29        Al31 1.883       .   S
O29         C39 1.279       .   A
O30        Al40 1.915       .   S
O30         C43 1.267       .   A
Al31        O36 1.814       .   S
Al31        O44 1.873       .   S
Al31        O41 1.904       .   S
O32        Al40 1.918       .   S
O32         C39 1.246       .   A
O33         C42 1.236       .   A
O33        Al40 1.930       .   S
O34        Al40 1.868       .   S
O35         C42 1.281       .   A
O36        Al40 1.829       .   S
O37         C38 1.232       .   A
C38        C116 1.521   1_654   S
C39         C91 1.562   1_545   S
C42         C60 1.424   1_554   S
C43         O44 1.287       .   A
C43         C77 1.532   1_544   S
C115       C116 1.399       .   A
C115       C120 1.391       .   A
C115       H122 1.083       .   S
C116       C117 1.401       .   A
C117       C118 1.389       .   A
C117       N124 1.482       .   S
C118       C119 1.397       .   A
C118       H123 1.085       .   S
C119       C120 1.400       .   A
C120       N121 1.477       .   S
N121       O125 1.228       .   D
N121       O126 1.228       .   S
N124       O127 1.225       .   S
N124       O128 1.226       .   D
C101       C102 1.399       .   A
C101       C106 1.391       .   A
C101       H108 1.083       .   S
C102       C103 1.401       .   A
C103       C104 1.389       .   A
C103       N110 1.482       .   S
C104       C105 1.397       .   A
C104       H109 1.085       .   S
C105       C106 1.400       .   A
C106       N107 1.477       .   S
N107       O111 1.228       .   D
N107       O112 1.228       .   S
N110       O113 1.225       .   S
N110       O114 1.226       .   D
C87         C88 1.399       .   A
C87         C92 1.391       .   A
C87         H94 1.083       .   S
C88         C89 1.401       .   A
C89         C90 1.389       .   A
C89         N96 1.482       .   S
C90         C91 1.397       .   A
C90         H95 1.085       .   S
C91         C92 1.400       .   A
C92         N93 1.477       .   S
N93         O97 1.228       .   D
N93         O98 1.228       .   S
N96         O99 1.225       .   S
N96        O100 1.226       .   D
C73         C74 1.399       .   A
C73         C78 1.391       .   A
C73         H80 1.083       .   S
C74         C75 1.401       .   A
C75         C76 1.389       .   A
C75         N82 1.482       .   S
C76         C77 1.397       .   A
C76         H81 1.085       .   S
C77         C78 1.400       .   A
C78         N79 1.477       .   S
N79         O83 1.228       .   D
N79         O84 1.228       .   S
N82         O85 1.225       .   S
N82         O86 1.226       .   D
C59         C60 1.399       .   A
C59         C64 1.391       .   A
C59         H66 1.083       .   S
C60         C61 1.401       .   A
C61         C62 1.389       .   A
C61         N68 1.482       .   S
C62         C63 1.397       .   A
C62         H67 1.085       .   S
C63         C64 1.400       .   A
C64         N65 1.477       .   S
N65         O69 1.228       .   D
N65         O70 1.228       .   S
N68         O71 1.225       .   S
N68         O72 1.226       .   D
C45         C46 1.399       .   A
C45         C50 1.391       .   A
C45         H52 1.083       .   S
C46         C47 1.401       .   A
C47         C48 1.389       .   A
C47         N54 1.482       .   S
C48         C49 1.397       .   A
C48         H53 1.085       .   S
C49         C50 1.400       .   A
C50         N51 1.477       .   S
N51         O55 1.228       .   D
N51         O56 1.228       .   S
N54         O57 1.225       .   S
N54         O58 1.226       .   D
