data_acs_v1-6c_Al_1_1-1B_2OH_Ch
_audit_creation_date              2021-04-19
_audit_creation_method            'tobacco_3.0'
_symmetry_space_group_name_H-M    'P1'
_symmetry_Int_Tables_number       1
_symmetry_cell_setting            triclinic
loop_
_symmetry_equiv_pos_as_xyz
  x,y,z
_cell_length_a                    17.001659357282193
_cell_length_b                    17.001659161984197
_cell_length_c                    13.482424545365951
_cell_angle_alpha                 90.00000104578463
_cell_angle_beta                  90.00000219944242
_cell_angle_gamma                 120.00086823096083
loop_
_atom_site_label
_atom_site_type_symbol
_atom_site_fract_x
_atom_site_fract_y
_atom_site_fract_z
_atom_site_charge
O1         O    0.1945969357    0.6627672882    0.8429877227          0.6005
O2         O    0.4680673410    0.8053998491    0.8429877308          0.6005
O3         O    0.3372289390    0.5319396602    0.8429877246          0.6005
O4         O    0.1945941975    0.5319309625    0.8429877213          0.6005
O5         O    0.4680659633    0.6627746478    0.8429877292          0.6005
O6         O    0.3372330550    0.8054011872    0.8429877277          0.6005
C7         C    0.1654452537    0.5827740625    0.8758898152          0.6005
C8         C    0.4172259433    0.8345508329    0.8758898239          0.6005
C9         C    0.4172288127    0.5827751123    0.8758898211          0.6005
O10        O    0.1945969309    0.6627672844    0.6570122707          0.6005
O11        O    0.4680673362    0.8053998453    0.6570122787          0.6005
O12        O    0.3372289342    0.5319396564    0.6570122725          0.6005
O13        O    0.1945941926    0.5319309587    0.6570122692          0.6005
O14        O    0.4680659584    0.6627746440    0.6570122771          0.6005
O15        O    0.3372330502    0.8054011834    0.6570122756          0.6005
Al16      Al    0.2744034643    0.7256071316    0.7500074163             1.0
Al17      Al    0.4511120790    0.7256088699    0.7500074205             1.0
Al18      Al    0.2743962205    0.5488957621    0.7500074144             1.0
O19        O    0.3333061851    0.6667016573    0.7500074171          0.6005
C20        C    0.1654452472    0.5827740574    0.6241101751          0.6005
C21        C    0.4172259368    0.8345508277    0.6241101838          0.6005
C22        C    0.4172288062    0.5827751072    0.6241101810          0.6005
O23        O    0.8053374167    0.3372983605    0.3429877336          0.6005
O24        O    0.5318670114    0.1946657996    0.3429877256          0.6005
O25        O    0.6627054134    0.4681259885    0.3429877317          0.6005
O26        O    0.8053401549    0.4681346862    0.3429877351          0.6005
O27        O    0.5318683891    0.3372910009    0.3429877272          0.6005
O28        O    0.6627012974    0.1946644615    0.3429877287          0.6005
C29        C    0.8344891004    0.4172915876    0.3758898292          0.6005
C30        C    0.5827084108    0.1655148172    0.3758898205          0.6005
C31        C    0.5827055414    0.4172905377    0.3758898233          0.6005
O32        O    0.8053374119    0.3372983568    0.1570122815          0.6005
O33        O    0.5318670066    0.1946657958    0.1570122735          0.6005
O34        O    0.6627054086    0.4681259847    0.1570122796          0.6005
O35        O    0.8053401501    0.4681346824    0.1570122830          0.6005
O36        O    0.5318683843    0.3372909971    0.1570122751          0.6005
O37        O    0.6627012926    0.1946644577    0.1570122766          0.6005
Al38      Al    0.7255308833    0.2744585133    0.2500074220             1.0
Al39      Al    0.5488222686    0.2744567751    0.2500074179             1.0
Al40      Al    0.7255381271    0.4511698828    0.2500074240             1.0
O41        O    0.6666281625    0.3333639877    0.2500074213          0.6005
C42        C    0.8344890939    0.4172915824    0.1241101891          0.6005
C43        C    0.5827084043    0.1655148121    0.1241101803          0.6005
C44        C    0.5827055349    0.4172905326    0.1241101832          0.6005
C105       C    0.9207051677    0.4604007656    0.0594472860         -0.4512
C106       C    0.9165244210    0.4701290972    0.9567114884         -0.7255
C107       C    0.9934087279    0.5088919097    0.8963203294          -0.033
C108       C    0.0792291799    0.5396648793    0.9405527182         -0.4547
C109       C    0.0834099266    0.5299365477    0.0432885159         -0.7244
C110       C    0.0065256197    0.4911737352    0.1036796749         -0.0339
H111       H    0.8496717396    0.4458984656    0.9245149358         -0.2302
O112       O    0.9864063720    0.5171189943    0.7965539152         -0.9994
H113       H    0.1502626080    0.5541671794    0.0754850684           -0.23
O114       O    0.0135279755    0.4829466507    0.2034460890         -1.0004
H115       H    0.0769858117    0.5074380858    0.2206610253          0.0399
H116       H    0.9229485359    0.4926275591    0.7793389789          0.0395
C93        C    0.0792291858    0.5396648814    0.5594472861         -0.4512
C94        C    0.0434847150    0.4520557037    0.5201978849         -0.7255
C95        C    0.9655624256    0.4112928862    0.4614572466          -0.033
C96        C    0.9207051618    0.4604007635    0.4405527182         -0.4547
C97        C    0.9564496326    0.5480099412    0.4798021193         -0.7244
C98        C    0.0343719219    0.5887727587    0.5385427577         -0.0339
H99        H    0.0792841662    0.4157200707    0.5373800986         -0.2302
O100       O    0.9329582627    0.3258145048    0.4246704558         -0.9994
H101       H    0.9206501814    0.5843455742    0.4626199057           -0.23
O102       O    0.0669760849    0.6742511401    0.5753295484         -1.0004
H103       H    0.0279605707    0.6974328702    0.5536779403          0.0399
H104       H    0.9719737768    0.3026327747    0.4463220639          0.0395
C81        C    0.5395985932    0.0792954316    0.4405536748         -0.4512
C82        C    0.5770430977    0.0223950308    0.4461601367         -0.7255
C83        C    0.5395231131    0.9439453426    0.5040620773          -0.033
C84        C    0.4603357544    0.9207702133    0.5594463294         -0.4547
C85        C    0.4228912499    0.9776706141    0.5538398676         -0.7244
C86        C    0.4604112344    0.0561203024    0.4959379270         -0.0339
H87        H    0.6379688355    0.0417479635    0.4028240684         -0.2302
O88        O    0.5780973201    0.8903615262    0.5074862500         -0.9994
H89        H    0.3619655120    0.9583176814    0.5971759359           -0.23
O90        O    0.4218370275    0.1097041187    0.4925137543         -1.0004
H91        H    0.3684631031    0.0836345222    0.5347524325          0.0399
H92        H    0.6314712444    0.9164311227    0.4652475717          0.0395
C69        C    0.5395985928    0.0792954348    0.0594463320         -0.4512
C70        C    0.5898989034    0.0395343145    0.0265856098         -0.7255
C71        C    0.5526963108    0.9615077679    0.9680107975          -0.033
C72        C    0.4603357548    0.9207702102    0.9405536723         -0.4547
C73        C    0.4100354442    0.9605313304    0.9734143945         -0.7244
C74        C    0.4472380368    0.0385578771    0.0319892068         -0.0339
H75        H    0.6608180565    0.0722104092    0.0487356766         -0.2302
O76        O    0.6040183472    0.9249192785    0.9375612745         -0.9994
H77        H    0.3391162911    0.9278552358    0.9512643276           -0.23
O78        O    0.3959160004    0.0751463664    0.0624387298         -1.0004
H79        H    0.3346755938    0.0385892219    0.0368769631          0.0399
H80        H    0.6652587538    0.9614764230    0.9631230412          0.0395
C57        C    0.5395970819    0.4604010326    0.0594461284         -0.4512
C58        C    0.5458294832    0.4618680524    0.9557785789         -0.7255
C59        C    0.5074813776    0.5003866886    0.8953610347          -0.033
C60        C    0.4603372657    0.5396646123    0.9405538758         -0.4547
C61        C    0.4541048643    0.5381975925    0.0442214253         -0.7244
C62        C    0.4924529700    0.4996789563    0.1046389695         -0.0339
H63        H    0.5824716296    0.4312023525    0.9228552945         -0.2302
O64        O    0.5150868032    0.5004091438    0.7946692190         -0.9994
H65        H    0.4174627180    0.5688632924    0.0771447097           -0.23
O66        O    0.4848475444    0.4996565011    0.2053307852         -1.0004
H67        H    0.4505870922    0.5292120392    0.2231177887          0.0399
H68        H    0.5493472553    0.4708536057    0.7768822156          0.0395
C45        C    0.5395970845    0.4604010355    0.4405538775 -0.45039999999999997
C46        C    0.4707812160    0.4089544430    0.5090245144         -0.7255
C47        C    0.4305237936    0.4461268933    0.5685466071          -0.033
C48        C    0.4603372630    0.5396646094    0.5594461267         -0.4547
C49        C    0.5291531316    0.5911112020    0.4909754899         -0.7244
C50        C    0.5694105540    0.5539387516    0.4314533972         -0.0339
H51        H    0.4490659422    0.3371431997    0.5145787336         -0.2302
O52        O    0.3636933122    0.3936674895    0.6343287025         -0.9994
H53        H    0.5508684053    0.6629224452    0.4854212706           -0.23
O54        O    0.6362410354    0.6063981554    0.3656713018         -1.0004
H55        H    0.6479157112    0.6683407626    0.3694274287          0.0399
H56        H    0.3520186363    0.3317248823    0.6305725756          0.0395
loop_
_geom_bond_atom_site_label_1
_geom_bond_atom_site_label_2
_geom_bond_distance
_geom_bond_site_symmetry_2
_ccdc_geom_bond_type
O1         Al16 1.762       .   S
O1           C7 1.272       .   A
O2         Al17 1.762       .   S
O2           C8 1.272       .   A
O3         Al18 1.762       .   S
O3           C9 1.272       .   A
O4         Al18 1.762       .   S
O4           C7 1.272       .   A
O5         Al17 1.762       .   S
O5           C9 1.272       .   A
O6         Al16 1.762       .   S
O6           C8 1.272       .   A
C7         C108 1.540       .   S
C8          C72 1.540       .   S
C9          C60 1.540       .   S
O10        Al16 1.762       .   S
O10         C20 1.272       .   A
O11        Al17 1.762       .   S
O11         C21 1.272       .   A
O12        Al18 1.762       .   S
O12         C22 1.272       .   A
O13        Al18 1.762       .   S
O13         C20 1.272       .   A
O14        Al17 1.762       .   S
O14         C22 1.272       .   A
O15        Al16 1.762       .   S
O15         C21 1.272       .   A
Al16        O19 1.735       .   S
Al17        O19 1.735       .   S
Al18        O19 1.735       .   S
C20         C93 1.540       .   S
C21         C84 1.540       .   S
C22         C48 1.540       .   S
O23        Al38 1.762       .   S
O23         C29 1.272       .   A
O24        Al39 1.762       .   S
O24         C30 1.272       .   A
O25        Al40 1.762       .   S
O25         C31 1.272       .   A
O26        Al40 1.762       .   S
O26         C29 1.272       .   A
O27        Al39 1.762       .   S
O27         C31 1.272       .   A
O28        Al38 1.762       .   S
O28         C30 1.272       .   A
C29         C96 1.540   1_655   S
C30         C81 1.540   1_545   S
C31         C45 1.540       .   S
O32        Al38 1.762       .   S
O32         C42 1.272       .   A
O33        Al39 1.762       .   S
O33         C43 1.272       .   A
O34        Al40 1.762       .   S
O34         C44 1.272       .   A
O35        Al40 1.762       .   S
O35         C42 1.272       .   A
O36        Al39 1.762       .   S
O36         C44 1.272       .   A
O37        Al38 1.762       .   S
O37         C43 1.272       .   A
Al38        O41 1.735       .   S
Al39        O41 1.735       .   S
Al40        O41 1.735       .   S
C42        C105 1.540   1_654   S
C43         C69 1.540   1_544   S
C44         C57 1.540   1_554   S
C105       C106 1.401       .   A
C105       C110 1.413       .   A
C106       C107 1.394       .   A
C106       H111 1.087       .   S
C107       C108 1.413       .   A
C107       O112 1.364       .   S
C108       C109 1.401       .   A
C109       C110 1.394       .   A
C109       H113 1.087       .   S
C110       O114 1.364       .   S
O112       H116 0.971       .   S
O114       H115 0.971       .   S
C93         C94 1.401       .   A
C93         C98 1.413       .   A
C94         C95 1.394       .   A
C94         H99 1.087       .   S
C95         C96 1.413       .   A
C95        O100 1.364       .   S
C96         C97 1.401       .   A
C97         C98 1.394       .   A
C97        H101 1.087       .   S
C98        O102 1.364       .   S
O100       H104 0.971       .   S
O102       H103 0.971       .   S
C81         C82 1.401       .   A
C81         C86 1.413       .   A
C82         C83 1.394       .   A
C82         H87 1.087       .   S
C83         C84 1.413       .   A
C83         O88 1.364       .   S
C84         C85 1.401       .   A
C85         C86 1.394       .   A
C85         H89 1.087       .   S
C86         O90 1.364       .   S
O88         H92 0.971       .   S
O90         H91 0.971       .   S
C69         C70 1.401       .   A
C69         C74 1.413       .   A
C70         C71 1.394       .   A
C70         H75 1.087       .   S
C71         C72 1.413       .   A
C71         O76 1.364       .   S
C72         C73 1.401       .   A
C73         C74 1.394       .   A
C73         H77 1.087       .   S
C74         O78 1.364       .   S
O76         H80 0.971       .   S
O78         H79 0.971       .   S
C57         C58 1.401       .   A
C57         C62 1.413       .   A
C58         C59 1.394       .   A
C58         H63 1.087       .   S
C59         C60 1.413       .   A
C59         O64 1.364       .   S
C60         C61 1.401       .   A
C61         C62 1.394       .   A
C61         H65 1.087       .   S
C62         O66 1.364       .   S
O64         H68 0.971       .   S
O66         H67 0.971       .   S
C45         C46 1.401       .   A
C45         C50 1.413       .   A
C46         C47 1.394       .   A
C46         H51 1.087       .   S
C47         C48 1.413       .   A
C47         O52 1.364       .   S
C48         C49 1.401       .   A
C49         C50 1.394       .   A
C49         H53 1.087       .   S
C50         O54 1.364       .   S
O52         H56 0.971       .   S
O54         H55 0.971       .   S
