data_acs_v1-6c_Al_1_Ch_1-1B_2Br_Ch
_audit_creation_date              2021-04-19
_audit_creation_method            'tobacco_3.0'
_symmetry_space_group_name_H-M    'P1'
_symmetry_Int_Tables_number       1
_symmetry_cell_setting            triclinic
loop_
_symmetry_equiv_pos_as_xyz
  x,y,z
_cell_length_a                    17.075252846702597
_cell_length_b                    17.023945266168504
_cell_length_c                    13.998704657136267
_cell_angle_alpha                 89.53547937712229
_cell_angle_beta                  90.28800449124087
_cell_angle_gamma                 119.55809565211146
loop_
_atom_site_label
_atom_site_type_symbol
_atom_site_fract_x
_atom_site_fract_y
_atom_site_fract_z
_atom_site_charge
O1         O    0.3336414148    0.8038268191    0.8526691275         -0.8293
C2         C    0.4130312167    0.5842830062    0.6200848726          0.9642
O3         O    0.4687648443    0.6487181840    0.6645842337         -0.7205
O4         O    0.4700577686    0.7998448292    0.6475090852         -0.7564
Al5       Al    0.4573931182    0.7269421243    0.7550150317          1.4898
C6         C    0.4226104015    0.8342201743    0.6228620162          0.9167
O7         O    0.2014199740    0.6663953275    0.6401127885         -0.8192
O8         O    0.1961524247    0.5326187632    0.8616402476         -0.7542
Al9       Al    0.2732396590    0.7284118952    0.7460066707          1.9012
O10        O    0.1799580946    0.5271833918    0.6691467522         -0.7449
O11        O    0.3501033764    0.5267426756    0.8473098208         -0.7434
O12        O    0.3320569104    0.5293874413    0.6519010977            -0.8
O13        O    0.4696230252    0.6652241425    0.8573909106          -0.782
O14        O    0.3329687365    0.6651287001    0.7532047905         -1.1434
O15        O    0.4700925386    0.8201166599    0.8411293426         -0.7353
C16        C    0.4152971768    0.8382970870    0.8771022354          0.9718
C17        C    0.1645700844    0.5816325680    0.6242340964          0.9358
Al18      Al    0.2723867970    0.5416731764    0.7573024812          1.5556
O19        O    0.3500893710    0.8190768728    0.6574990766         -0.7815
C20        C    0.4248792116    0.5813073107    0.8796391732          0.9775
C21        C    0.1594119090    0.5804598538    0.8760776062          0.9263
O22        O    0.1801988201    0.6535523147    0.8293583453         -0.8347
O23        O    0.8042231193    0.3341716019    0.1470814780         -0.8293
C24        C    0.5851400360    0.4137407327    0.3799298335          0.9642
O25        O    0.6495405424    0.4696801871    0.3352059841         -0.7205
O26        O    0.8000216886    0.4706307626    0.3519960615         -0.7564
Al27      Al    0.7276533513    0.4583315726    0.2446495705          1.4898
C28        C    0.8341019767    0.4228613973    0.3766672368          0.9167
O29        O    0.6665454898    0.2011626358    0.3601420215         -0.8186
O30        O    0.5338462451    0.1966987996    0.1388736010         -0.7542
Al31      Al    0.7287225527    0.2734116010    0.2539979476          1.9012
O32        O    0.5279203366    0.1799678927    0.3314083166         -0.7449
O33        O    0.5282691870    0.3512451386    0.1529285753         -0.7434
O34        O    0.5303800313    0.3326310438    0.3483668620            -0.8
O35        O    0.6664624584    0.4709916969    0.1423659151          -0.782
O36        O    0.6658316024    0.3335266639    0.2468070312         -1.1434
O37        O    0.8206947494    0.4711099928    0.1583368949         -0.7353
C38        C    0.8387811904    0.4161476354    0.1224317958          0.9718
C39        C    0.5820083318    0.1642956157    0.3762479534          0.9358
Al40      Al    0.5427585228    0.2729601911    0.2430530440          1.5556
O41        O    0.8189590612    0.3501659019    0.3421933112         -0.7815
C42        C    0.5828468725    0.4262928280    0.1203578203          0.9775
C43        C    0.5814573389    0.1597501547    0.1244150440          0.9263
O44        O    0.6541825351    0.1803562318    0.1709590902         -0.8347
C95        C    0.0012907731    0.4544154065    0.9178855837         -0.1029
C96        C    0.0765357775    0.5379886861    0.9397548555           0.059
C97        C    0.0732792153    0.5819859879    0.0231101854         -0.0406
C98        C    0.9969023264    0.5421920827    0.0806238183         -0.0851
C99        C    0.9216573220    0.4586188031    0.0587545464          0.0502
C100       C    0.9249138841    0.4146215013    0.9753992166         -0.0353
Br101     Br    0.8303793029    0.3015747172    0.9336384535         -0.0323
H102       H    0.0027318510    0.4197321660    0.8540713124          0.0893
H103       H    0.9954612485    0.5768753232    0.1444380896          0.0695
Br104     Br    0.1678137966    0.6950327720    0.0648709485         -0.0366
C85        C    0.9180145898    0.4852812215    0.5381262225         -0.1029
C86        C    0.9211412677    0.4646788369    0.4418718464           0.059
C87        C    0.0046926393    0.4823875447    0.4044288772         -0.0406
C88        C    0.0806574714    0.5192127438    0.4627751108         -0.0851
C89        C    0.0775307934    0.5398151284    0.5590294869          0.0502
C90        C    0.9939794219    0.5221064206    0.5964724560         -0.0353
Br91      Br    0.9758812899    0.5451559027    0.7244361638         -0.0323
H92        H    0.8543075226    0.4720695287    0.5679901570          0.0893
H93        H    0.1443645386    0.5324244365    0.4329111762          0.0695
Br94      Br    0.0227907712    0.4593380626    0.2764651695         -0.0366
C75        C    0.5254832822    0.9333377849    0.4851935339         -0.1029
C76        C    0.4643430840    0.9206386966    0.5582948894           0.059
C77        C    0.4413319539    0.9885676410    0.5720783022         -0.0406
C78        C    0.4791354511    0.0651780051    0.5139164358         -0.0851
C79        C    0.5402756493    0.0778770934    0.4408150803          0.0502
C80        C    0.5632867794    0.0099481490    0.4270316674         -0.0353
Br81      Br    0.6444535230    0.0144977176    0.3323379468         -0.0323
H82        H    0.5438604870    0.8817525276    0.4736763048          0.0893
H83        H    0.4607582463    0.1167632624    0.5254336648          0.0695
Br84      Br    0.3601652102    0.9840180724    0.6667720228         -0.0366
C65        C    0.5101411409    0.9262182972    0.0213574335         -0.1029
C66        C    0.4583942254    0.9216725383    0.9412478886           0.059
C67        C    0.4469970778    0.9965759801    0.9211378779         -0.0406
C68        C    0.4866133747    0.0718289446    0.9801598459         -0.0851
C69        C    0.5383602903    0.0763747035    0.0602693908          0.0502
C70        C    0.5497574378    0.0014712616    0.0803794015         -0.0353
Br71      Br    0.6170612173    0.9945226487    0.1850218130         -0.0323
H72        H    0.5195449971    0.8692091619    0.0377873447          0.0893
H73        H    0.4772095186    0.1288380799    0.9637299347          0.0695
Br74      Br    0.3796932984    0.0035245930    0.8164954664         -0.0366
C55        C    0.5685574716    0.4861654633    0.9640468782         -0.1029
C56        C    0.5433093811    0.4650911728    0.0601087074           0.059
C57        C    0.4771388450    0.4834937471    0.0957821230         -0.0406
C58        C    0.4391686125    0.5214346754    0.0359501153         -0.0851
C59        C    0.4644167030    0.5425089659    0.9398882861          0.0502
C60        C    0.5305872392    0.5241063916    0.9042148705         -0.0353
Br61      Br    0.5737096045    0.5476345712    0.7767941648         -0.0323
H62        H    0.6193237553    0.4724316241    0.9355339427          0.0893
H63        H    0.3884023288    0.5351685146    0.0644630507          0.0695
Br64      Br    0.4340164796    0.4599655676    0.2232028286         -0.0366
C45        C    0.5125323406    0.5180180136    0.4036677940         -0.1029
C46        C    0.5392683717    0.4591948701    0.4439376594           0.059
C47        C    0.5250833332    0.4404369662    0.5424314709         -0.0406
C48        C    0.4856389121    0.4800057253    0.5963469121         -0.0851
C49        C    0.4589028810    0.5388288688    0.5560770468          0.0502
C50        C    0.4730879195    0.5575867727    0.4575832352         -0.0353
Br51      Br    0.4417219544    0.6351056810    0.3900203960         -0.0323
H52        H    0.5229671258    0.5331222611    0.3280608510          0.0893
H53        H    0.4752041270    0.4649014778    0.6719538551          0.0695
Br54      Br    0.5564492984    0.3629180579    0.6099943101         -0.0366
loop_
_geom_bond_atom_site_label_1
_geom_bond_atom_site_label_2
_geom_bond_distance
_geom_bond_site_symmetry_2
_ccdc_geom_bond_type
O1          C16 1.264       .   A
O1          Al9 1.910       .   S
C2          O12 1.307       .   A
C2           O3 1.213       .   A
C2          C49 1.622       .   S
O3          Al5 1.923       .   S
O4          Al5 1.887       .   S
O4           C6 1.257       .   A
Al5         O13 1.841       .   S
Al5         O14 1.849       .   S
Al5         O15 1.925       .   S
C6          O19 1.234       .   A
C6          C76 1.562       .   S
O7          Al9 1.883       .   S
O7          C17 1.279       .   A
O8         Al18 1.915       .   S
O8          C21 1.267       .   A
Al9         O14 1.814       .   S
Al9         O22 1.873       .   S
Al9         O19 1.904       .   S
O10        Al18 1.918       .   S
O10         C17 1.246       .   A
O11         C20 1.236       .   A
O11        Al18 1.930       .   S
O12        Al18 1.868       .   S
O13         C20 1.281       .   A
O14        Al18 1.829       .   S
O15         C16 1.232       .   A
C16         C66 1.532       .   S
C17         C89 1.582       .   S
C20         C59 1.424       .   S
C21         O22 1.287       .   A
C21         C96 1.521       .   S
O23         C38 1.264       .   A
O23        Al31 1.910       .   S
C24         O34 1.307       .   A
C24         O25 1.213       .   A
C24         C46 1.622       .   S
O25        Al27 1.923       .   S
O26        Al27 1.887       .   S
O26         C28 1.257       .   A
Al27        O35 1.841       .   S
Al27        O36 1.849       .   S
Al27        O37 1.925       .   S
C28         O41 1.234       .   A
C28         C86 1.582   1_655   S
O29        Al31 1.883       .   S
O29         C39 1.279       .   A
O30        Al40 1.915       .   S
O30         C43 1.267       .   A
Al31        O36 1.814       .   S
Al31        O44 1.873       .   S
Al31        O41 1.904       .   S
O32        Al40 1.918       .   S
O32         C39 1.246       .   A
O33         C42 1.236       .   A
O33        Al40 1.930       .   S
O34        Al40 1.868       .   S
O35         C42 1.281       .   A
O36        Al40 1.829       .   S
O37         C38 1.232       .   A
C38         C99 1.521   1_654   S
C39         C79 1.562   1_545   S
C42         C56 1.424   1_554   S
C43         O44 1.287       .   A
C43         C69 1.532   1_544   S
C95         C96 1.403       .   A
C95        C100 1.392       .   A
C95        H102 1.082       .   S
C96         C97 1.408       .   A
C97         C98 1.392       .   A
C97       Br104 1.896       .   S
C98         C99 1.403       .   A
C98        H103 1.082       .   S
C99        C100 1.408       .   A
C100      Br101 1.896       .   S
C85         C86 1.403       .   A
C85         C90 1.392       .   A
C85         H92 1.082       .   S
C86         C87 1.408       .   A
C87         C88 1.392       .   A
C87        Br94 1.896       .   S
C88         C89 1.403       .   A
C88         H93 1.082       .   S
C89         C90 1.408       .   A
C90        Br91 1.896       .   S
C75         C76 1.403       .   A
C75         C80 1.392       .   A
C75         H82 1.082       .   S
C76         C77 1.408       .   A
C77         C78 1.392       .   A
C77        Br84 1.896       .   S
C78         C79 1.403       .   A
C78         H83 1.082       .   S
C79         C80 1.408       .   A
C80        Br81 1.896       .   S
C65         C66 1.403       .   A
C65         C70 1.392       .   A
C65         H72 1.082       .   S
C66         C67 1.408       .   A
C67         C68 1.392       .   A
C67        Br74 1.896       .   S
C68         C69 1.403       .   A
C68         H73 1.082       .   S
C69         C70 1.408       .   A
C70        Br71 1.896       .   S
C55         C56 1.403       .   A
C55         C60 1.392       .   A
C55         H62 1.082       .   S
C56         C57 1.408       .   A
C57         C58 1.392       .   A
C57        Br64 1.896       .   S
C58         C59 1.403       .   A
C58         H63 1.082       .   S
C59         C60 1.408       .   A
C60        Br61 1.896       .   S
C45         C46 1.403       .   A
C45         C50 1.392       .   A
C45         H52 1.082       .   S
C46         C47 1.408       .   A
C47         C48 1.392       .   A
C47        Br54 1.896       .   S
C48         C49 1.403       .   A
C48         H53 1.082       .   S
C49         C50 1.408       .   A
C50        Br51 1.896       .   S
