data_acs_v1-6c_Al_1_Ch_1-1B_2OH_Ch
_audit_creation_date              2021-04-19
_audit_creation_method            'tobacco_3.0'
_symmetry_space_group_name_H-M    'P1'
_symmetry_Int_Tables_number       1
_symmetry_cell_setting            triclinic
loop_
_symmetry_equiv_pos_as_xyz
  x,y,z
_cell_length_a                    17.060453840399646
_cell_length_b                    17.009203551785525
_cell_length_c                    13.986585691511786
_cell_angle_alpha                 89.53582187707967
_cell_angle_beta                  90.28782820186778
_cell_angle_gamma                 119.55804958898756
loop_
_atom_site_label
_atom_site_type_symbol
_atom_site_fract_x
_atom_site_fract_y
_atom_site_fract_z
_atom_site_charge
O1         O    0.3336416064    0.8039458603    0.8527585883          -0.823
C2         C    0.4131004379    0.5842112799    0.6199718531          0.9706
O3         O    0.4688823568    0.6487023749    0.6645099012         -0.7141
O4         O    0.4701762953    0.7999599016    0.6474205110         -0.7501
Al5       Al    0.4575007061    0.7269943011    0.7550193618          1.4898
C6         C    0.4226877519    0.8343649763    0.6227523035          0.9231
O7         O    0.2013055956    0.6663948247    0.6400178274         -0.8123
O8         O    0.1960335601    0.5325029016    0.8617367465         -0.7478
Al9       Al    0.2731875221    0.7284653588    0.7460035521          1.9012
O10        O    0.1798251994    0.5270623619    0.6690764766         -0.7385
O11        O    0.3501180451    0.5266216597    0.8473935880          -0.737
O12        O    0.3320559365    0.5292682503    0.6518155978         -0.7936
O13        O    0.4697412586    0.6652230960    0.8574836938         -0.7757
O14        O    0.3329684501    0.6651273466    0.7532075622          -1.137
O15        O    0.4702110692    0.8202497594    0.8412086046          -0.729
C16        C    0.4153681658    0.8384460334    0.8772128372          0.9782
C17        C    0.1644238063    0.5815586030    0.6241251359          0.9422
Al18      Al    0.2723340535    0.5415648934    0.7573084648          1.5556
O19        O    0.3501038295    0.8192086531    0.6574194577         -0.7752
C20        C    0.4249586955    0.5812336281    0.8797510101          0.9839
C21        C    0.1592611426    0.5803854793    0.8761868602          0.9327
O22        O    0.1800660335    0.6535411447    0.8294273486         -0.8284
O23        O    0.8043419969    0.3341724870    0.1469917639          -0.823
C24        C    0.5850688259    0.4138111574    0.3800425787          0.9706
O25        O    0.6495251519    0.4697989518    0.3352800598         -0.7141
O26        O    0.8001368149    0.4707503620    0.3520844014         -0.7501
Al27      Al    0.7277057236    0.4584402710    0.2446449935          1.4898
C28        C    0.8342466951    0.4229396666    0.3767767135          0.9231
O29        O    0.6665450382    0.2010488371    0.3602366897         -0.8123
O30        O    0.5337307120    0.1965806233    0.1387767888         -0.7478
Al31      Al    0.7287759835    0.2733601231    0.2540007930          1.9012
O32        O    0.5277996662    0.1798356903    0.3314782756         -0.7385
O33        O    0.5281487061    0.3512608832    0.1528445161          -0.737
O34        O    0.5302613848    0.3326311362    0.3484520677         -0.7936
O35        O    0.6664617535    0.4711111268    0.1422728778 -0.7768999999999999
O36        O    0.6658304429    0.3335272594    0.2468039856          -1.137
O37        O    0.8208278155    0.4712295337    0.1582574018          -0.729
C38        C    0.8389299845    0.4162194710    0.1223209576          0.9782
C39        C    0.5819345830    0.1641499343    0.3763566031          0.9422
Al40      Al    0.5426506604    0.2729083320    0.2430467593          1.5556
O41        O    0.8190906989    0.3501811134    0.3422726814         -0.7752
C42        C    0.5827736772    0.4263734977    0.1202457104          0.9839
C43        C    0.5813831279    0.1595999249    0.1243054785          0.9327
O44        O    0.6541713846    0.1802239519    0.1708897891         -0.8284
C105       C    0.9218760868    0.4587283877    0.0585873384         -0.0596
C106       C    0.9609410657    0.5489358043    0.0281738598         -0.3339
C107       C    0.0369653590    0.5897076803    0.9697710290          0.3586
C108       C    0.0763150402    0.5378765625    0.9399204793         -0.0632
C109       C    0.0372500614    0.4476691460    0.9703339579         -0.3329
C110       C    0.9612257681    0.4068972700    0.0287367888          0.3576
H111       H    0.9293631286    0.5873380961    0.0521363244          0.1613
O112       O    0.0729370133    0.6777649553    0.9417447312         -0.6079
H113       H    0.0688279985    0.4092668542    0.9463714934          0.1615
O114       O    0.9252541137    0.3188399949    0.0567630865         -0.6089
H115       H    0.9606675480    0.2940235771    0.0297901557          0.4314
H116       H    0.0375235790    0.7025813731    0.9687176620           0.431
C93        C    0.0773092501    0.5397082816    0.5588642583         -0.0596
C94        C    0.9967542413    0.5342804398    0.5896484269         -0.3339
C95        C    0.9189417901    0.4977703414    0.5336960335          0.3586
C96        C    0.9213612512    0.4647899881    0.4420375911         -0.0632
C97        C    0.0019162600    0.4702178298    0.4112534225         -0.3329
C98        C    0.0797287112    0.5067279282    0.4672058159          0.3576
H99        H    0.9966751400    0.5601224684    0.6604597059          0.1613
O100       O    0.8418459265    0.4937407619    0.5663348120         -0.6079
H101       H    0.0019953614    0.4443758012    0.3404421435          0.1615
O102       O    0.1568245748    0.5107575077    0.4345670374         -0.6089
H103       H    0.1462263422    0.4852958299    0.3708435740          0.4314
H104       H    0.8524441592    0.5192024397    0.6300582754           0.431
C81        C    0.5401676324    0.0776545739    0.4409807905         -0.0596
C82        C    0.4479121078    0.0146688254    0.4383840479         -0.3339
C83        C    0.4087635532    0.9368850220    0.4951990327          0.3586
C84        C    0.4644547025    0.9208603367    0.5581281162         -0.0632
C85        C    0.5567102271    0.9838460851    0.5607248587         -0.3329
C86        C    0.5958587817    0.0616298885    0.5039098739          0.3576
H87        H    0.4065413014    0.0285886176    0.3893591799          0.1613
O88        O    0.3186152333    0.8772279697    0.4905086401         -0.6079
H89        H    0.5980810335    0.9699262930    0.6097497268          0.1615
O90        O    0.6860071016    0.1212869408    0.5086002666         -0.6089
H91        H    0.7133951868    0.0996116102    0.5551964747          0.4314
H92        H    0.2912271481    0.8989033004    0.4439124320           0.431
C69        C    0.5382475512    0.0761546852    0.0601035329         -0.0596
C70        C    0.5644173932    0.0100257757    0.0647644694         -0.3339
C71        C    0.5263512465    0.9333901583    0.0072536953          0.3586
C72        C    0.4585037424    0.9218912730    0.9414147828         -0.0632
C73        C    0.4323339005    0.9880201826    0.9367538463         -0.3329
C74        C    0.4704000472    0.0646558000    0.9942646204          0.3576
H75        H    0.6167603254    0.0204857184    0.1160129973          0.1613
O76        O    0.5537432651    0.8705696825    0.0140193093         -0.6079
H77        H    0.3799909683    0.9775602398    0.8855053184          0.1615
O78        O    0.4430080286    0.1274762758    0.9874990064         -0.6089
H79        H    0.3963561920    0.1086972708    0.9390471271          0.4314
H80        H    0.6003951017    0.8893486874    0.0624711886           0.431
C57        C    0.4645314370    0.5424018276    0.9400560235         -0.0596
C58        C    0.4219722628    0.4953642992    0.0239005957         -0.3339
C59        C    0.4590738991    0.4566441682    0.0842785254          0.3586
C60        C    0.5432009358    0.4652052983    0.0599406970         -0.0632
C61        C    0.5857601100    0.5122428266    0.9760961247         -0.3329
C62        C    0.5486584736    0.5509629577    0.9157181950          0.3576
H63        H    0.3573074017    0.4897496975    0.0410056027          0.1613
O64        O    0.4154374268    0.4113711550    0.1652857328         -0.6079
H65        H    0.6504249711    0.5178574284    0.9589911177          0.1615
O66        O    0.5922949459    0.5962359708    0.8347109877         -0.6089
H67        H    0.6485715033    0.5953776620    0.8294423539          0.4314
H68        H    0.3591608694    0.4122294638    0.1705543665           0.431
C45        C    0.4590134563    0.5387169653    0.5559142823         -0.0596
C46        C    0.5196559684    0.5867558462    0.4822448721         -0.3339
C47        C    0.5601561379    0.5494327588    0.4260514492          0.3586
C48        C    0.5391558075    0.4593054720    0.4441001494         -0.0632
C49        C    0.4785132954    0.4112665911    0.5177695596         -0.3329
C50        C    0.4380131259    0.4485896785    0.5739629825          0.3576
H51        H    0.5346689606    0.6559792504    0.4698160685          0.1613
O52        O    0.6188710775    0.5985174348    0.3549929029         -0.6079
H53        H    0.4635003033    0.3420431869    0.5301983632          0.1615
O54        O    0.3792981864    0.3995050025    0.6450215289         -0.6089
H55        H    0.3729601659    0.3395895245    0.6471612185          0.4314
H56        H    0.6252090979    0.6584329128    0.3528532132           0.431
loop_
_geom_bond_atom_site_label_1
_geom_bond_atom_site_label_2
_geom_bond_distance
_geom_bond_site_symmetry_2
_ccdc_geom_bond_type
O1          C16 1.264       .   A
O1          Al9 1.910       .   S
C2          O12 1.307       .   A
C2           O3 1.213       .   A
C2          C45 1.622       .   S
O3          Al5 1.923       .   S
O4          Al5 1.887       .   S
O4           C6 1.257       .   A
Al5         O13 1.841       .   S
Al5         O14 1.849       .   S
Al5         O15 1.925       .   S
C6          O19 1.234       .   A
C6          C84 1.562       .   S
O7          Al9 1.883       .   S
O7          C17 1.279       .   A
O8         Al18 1.915       .   S
O8          C21 1.267       .   A
Al9         O14 1.814       .   S
Al9         O22 1.873       .   S
Al9         O19 1.904       .   S
O10        Al18 1.918       .   S
O10         C17 1.246       .   A
O11         C20 1.236       .   A
O11        Al18 1.930       .   S
O12        Al18 1.868       .   S
O13         C20 1.281       .   A
O14        Al18 1.829       .   S
O15         C16 1.232       .   A
C16         C72 1.532       .   S
C17         C93 1.582       .   S
C20         C57 1.424       .   S
C21         O22 1.287       .   A
C21        C108 1.521       .   S
O23         C38 1.264       .   A
O23        Al31 1.910       .   S
C24         O34 1.307       .   A
C24         O25 1.213       .   A
C24         C48 1.622       .   S
O25        Al27 1.923       .   S
O26        Al27 1.887       .   S
O26         C28 1.257       .   A
Al27        O35 1.841       .   S
Al27        O36 1.849       .   S
Al27        O37 1.925       .   S
C28         O41 1.234       .   A
C28         C96 1.582   1_655   S
O29        Al31 1.883       .   S
O29         C39 1.279       .   A
O30        Al40 1.915       .   S
O30         C43 1.267       .   A
Al31        O36 1.814       .   S
Al31        O44 1.873       .   S
Al31        O41 1.904       .   S
O32        Al40 1.918       .   S
O32         C39 1.246       .   A
O33         C42 1.236       .   A
O33        Al40 1.930       .   S
O34        Al40 1.868       .   S
O35         C42 1.281       .   A
O36        Al40 1.829       .   S
O37         C38 1.232       .   A
C38        C105 1.521   1_654   S
C39         C81 1.562   1_545   S
C42         C60 1.424   1_554   S
C43         O44 1.287       .   A
C43         C69 1.532   1_544   S
C105       C106 1.401       .   A
C105       C110 1.413       .   A
C106       C107 1.394       .   A
C106       H111 1.087       .   S
C107       C108 1.413       .   A
C107       O112 1.364       .   S
C108       C109 1.401       .   A
C109       C110 1.394       .   A
C109       H113 1.087       .   S
C110       O114 1.364       .   S
O112       H116 0.971       .   S
O114       H115 0.971       .   S
C93         C94 1.401       .   A
C93         C98 1.413       .   A
C94         C95 1.394       .   A
C94         H99 1.087       .   S
C95         C96 1.413       .   A
C95        O100 1.364       .   S
C96         C97 1.401       .   A
C97         C98 1.394       .   A
C97        H101 1.087       .   S
C98        O102 1.364       .   S
O100       H104 0.971       .   S
O102       H103 0.971       .   S
C81         C82 1.401       .   A
C81         C86 1.413       .   A
C82         C83 1.394       .   A
C82         H87 1.087       .   S
C83         C84 1.413       .   A
C83         O88 1.364       .   S
C84         C85 1.401       .   A
C85         C86 1.394       .   A
C85         H89 1.087       .   S
C86         O90 1.364       .   S
O88         H92 0.971       .   S
O90         H91 0.971       .   S
C69         C70 1.401       .   A
C69         C74 1.413       .   A
C70         C71 1.394       .   A
C70         H75 1.087       .   S
C71         C72 1.413       .   A
C71         O76 1.364       .   S
C72         C73 1.401       .   A
C73         C74 1.394       .   A
C73         H77 1.087       .   S
C74         O78 1.364       .   S
O76         H80 0.971       .   S
O78         H79 0.971       .   S
C57         C58 1.401       .   A
C57         C62 1.413       .   A
C58         C59 1.394       .   A
C58         H63 1.087       .   S
C59         C60 1.413       .   A
C59         O64 1.364       .   S
C60         C61 1.401       .   A
C61         C62 1.394       .   A
C61         H65 1.087       .   S
C62         O66 1.364       .   S
O64         H68 0.971       .   S
O66         H67 0.971       .   S
C45         C46 1.401       .   A
C45         C50 1.413       .   A
C46         C47 1.394       .   A
C46         H51 1.087       .   S
C47         C48 1.413       .   A
C47         O52 1.364       .   S
C48         C49 1.401       .   A
C49         C50 1.394       .   A
C49         H53 1.087       .   S
C50         O54 1.364       .   S
O52         H56 0.971       .   S
O54         H55 0.971       .   S
