data_acs_v1-6c_Al_1_1-1B_4H_Ch
_audit_creation_date              2021-04-26
_audit_creation_method            'tobacco_3.0'
_symmetry_space_group_name_H-M    'P1'
_symmetry_Int_Tables_number       1
_symmetry_cell_setting            triclinic
loop_
_symmetry_equiv_pos_as_xyz
  x,y,z
_cell_length_a                    17.35650294460366
_cell_length_b                    17.356502559527502
_cell_length_c                    13.763818000530215
_cell_angle_alpha                 89.99999123110511
_cell_angle_beta                  90.00000862312957
_cell_angle_gamma                 120.00086196160848
loop_
_atom_site_label
_atom_site_type_symbol
_atom_site_fract_x
_atom_site_fract_y
_atom_site_fract_z
_atom_site_charge
O1         O    0.1974326451    0.6628476936    0.8410866325          0.5398
O2         O    0.4653120901    0.8025641944    0.8410866441          0.5398
O3         O    0.3371486232    0.5346947534    0.8410866574          0.5398
O4         O    0.1974299705    0.5346862428    0.8410866446          0.5398
O5         O    0.4653107488    0.6628548849    0.8410866572          0.5398
O6         O    0.3371526391    0.8025655137    0.8410866323          0.5398
C7         C    0.1688769583    0.5844898842    0.8733160666          0.5398
C8         C    0.4155101156    0.8311192041    0.8733160662          0.5398
C9         C    0.4155129410    0.5844908961    0.8733160893          0.5398
O10        O    0.1974326377    0.6628477013    0.6589133431          0.5398
O11        O    0.4653120827    0.8025642021    0.6589133547          0.5398
O12        O    0.3371486159    0.5346947611    0.6589133680          0.5398
O13        O    0.1974299631    0.5346862505    0.6589133551          0.5398
O14        O    0.4653107415    0.6628548926    0.6589133678          0.5398
O15        O    0.3371526317    0.8025655214    0.6589133429          0.5398
Al16      Al    0.2756075681    0.7244028124    0.7500072547             1.0
Al17      Al    0.4487034724    0.7244045035    0.7500072707             1.0
Al18      Al    0.2756004828    0.5513042072    0.7500072709             1.0
O19        O    0.3333060587    0.6667016234    0.7500072654          0.5398
C20        C    0.1688769484    0.5844898946    0.6266839185          0.5398
C21        C    0.4155101056    0.8311192145    0.6266839181          0.5398
C22        C    0.4155129311    0.5844909065    0.6266839412          0.5398
O23        O    0.8025016870    0.3372179773    0.3410866575          0.5398
O24        O    0.5346222421    0.1975014765    0.3410866459          0.5398
O25        O    0.6627857089    0.4653709175    0.3410866326          0.5398
O26        O    0.8025043616    0.4653794281    0.3410866455          0.5398
O27        O    0.5346235833    0.3372107860    0.3410866328          0.5398
O28        O    0.6627816930    0.1975001572    0.3410866577          0.5398
C29        C    0.8310573764    0.4155757840    0.3733160821          0.5398
C30        C    0.5844242191    0.1689464641    0.3733160825          0.5398
C31        C    0.5844213937    0.4155747721    0.3733160594          0.5398
O32        O    0.8025016797    0.3372179850    0.1589133681          0.5398
O33        O    0.5346222347    0.1975014842    0.1589133565          0.5398
O34        O    0.6627857016    0.4653709252    0.1589133432          0.5398
O35        O    0.8025043543    0.4653794358    0.1589133561          0.5398
O36        O    0.5346235760    0.3372107937    0.1589133434          0.5398
O37        O    0.6627816857    0.1975001649    0.1589133683          0.5398
Al38      Al    0.7243267567    0.2756628662    0.2500072768             1.0
Al39      Al    0.5512308524    0.2756611751    0.2500072608             1.0
Al40      Al    0.7243338420    0.4487614714    0.2500072605             1.0
O41        O    0.6666282661    0.3333640552    0.2500072660          0.5398
C42        C    0.8310573664    0.4155757944    0.1266839340          0.5398
C43        C    0.5844242092    0.1689464746    0.1266839344          0.5398
C44        C    0.5844213838    0.4155747825    0.1266839113          0.5398
C95        C    0.9920312697    0.5000740526    0.8885632184         -0.5907
C96        C    0.0844235162    0.5422620897    0.9366569416         -0.3692
C97        C    0.0923594088    0.5422208763    0.0480937235         -0.5907
C98        C    0.0079030550    0.4999916260    0.1114367822         -0.5907
C99        C    0.9155108086    0.4578035889    0.0633430590         -0.3692
C100       C    0.9075749159    0.4578448023    0.9519062771         -0.5907
H101       H    0.9861566479    0.5001045612    0.8060710552         -0.3294
H102       H    0.1607480725    0.5734483101    0.0836960531         -0.3294
H103       H    0.0137776769    0.4999611174    0.1939289454         -0.3294
H104       H    0.8391862523    0.4266173685    0.9163039475         -0.3294
C85        C    0.0256375329    0.4403218051    0.5579983229         -0.5907
C86        C    0.0844235247    0.5422621016    0.5633430614         -0.3692
C87        C    0.0587531542    0.6019731359    0.5053447387         -0.5907
C88        C    0.9742967919    0.5597438735    0.4420016777         -0.5907
C89        C    0.9155108001    0.4578035770    0.4366569393         -0.3692
C90        C    0.9411811706    0.3980925428    0.4946552619         -0.5907
H91        H    0.0446402747    0.3961201304    0.6009321462         -0.3294
H92        H    0.1022655240    0.6774308708    0.5092990596         -0.3294
H93        H    0.9552940501    0.6039455482    0.3990678544         -0.3294
H94        H    0.8976688008    0.3226348079    0.4907009410         -0.3294
C75        C    0.5143072457    0.0075580379    0.6107852828         -0.5907
C76        C    0.4577385507    0.9155758604    0.5633420841         -0.3692
C77        C    0.4433984674    0.9080506618    0.4525568017         -0.5907
C78        C    0.4856270791    0.9925076407    0.3892147179         -0.5907
C79        C    0.5421957740    0.0844898183    0.4366579165         -0.3692
C80        C    0.5565358574    0.0920150169    0.5474431990         -0.5907
H81        H    0.5249226320    0.0131286395    0.6927951672         -0.3294
H82        H    0.4015260666    0.8399655427    0.4174360086         -0.3294
H83        H    0.4750116927    0.9869370391    0.3072048334         -0.3294
H84        H    0.5984082581    0.1601001359    0.5825639920         -0.3294
C65        C    0.5430986692    0.9412272076    0.9946935618         -0.5907
C66        C    0.4577385628    0.9155758692    0.9366579189         -0.3692
C67        C    0.4146070560    0.9743815009    0.9419643574         -0.5907
C68        C    0.4568356556    0.0588384710    0.0053064388         -0.5907
C69        C    0.5421957620    0.0844898094    0.0633420817         -0.3692
C70        C    0.5853272688    0.0256841777    0.0580356432         -0.5907
H71        H    0.5750271871    0.8976957660    0.9907654191         -0.3294
H72        H    0.3514224436    0.9553963325    0.8990067487         -0.3294
H73        H    0.4249071376    0.1023699126    0.0092345815         -0.3294
H74        H    0.6485118812    0.0446693462    0.1009932519         -0.3294
C55        C    0.3980523884    0.4574522724    0.9955319087         -0.5907
C56        C    0.4577401114    0.5422618080    0.9366581344         -0.3692
C57        C    0.5596548854    0.5848423748    0.9411262260         -0.5907
C58        C    0.6018819364    0.5426134062    0.0044680919         -0.5907
C59        C    0.5421942134    0.4578038706    0.0633418662         -0.3692
C60        C    0.4402794394    0.4152233038    0.0588737746         -0.5907
H61        H    0.3226089843    0.4259315931    0.9922243604         -0.3294
H62        H    0.6038387511    0.6476194392    0.8975482089         -0.3294
H63        H    0.6773253405    0.5741340855    0.0077756403         -0.3294
H64        H    0.3960955736    0.3524462394    0.1024517917         -0.3294
C45        C    0.4134770198    0.4964740092    0.4669433559         -0.5907
C46        C    0.4577401200    0.5422617996    0.5633418608 -0.36879999999999996
C47        C    0.5442302626    0.5458206297    0.5963985053         -0.5907
C48        C    0.5864573050    0.5035916694    0.5330566447         -0.5907
C49        C    0.5421942048    0.4578038790    0.4366581398         -0.3692
C50        C    0.4557040622    0.4542450489    0.4036014954         -0.5907
H51        H    0.3494518493    0.4938395506    0.4424728528         -0.3294
H52        H    0.5769963893    0.5797127020    0.6677533822         -0.3294
H53        H    0.6504824755    0.5062261280    0.5575271478         -0.3294
H54        H    0.4229379355    0.4203529766    0.3322466184         -0.3294
loop_
_geom_bond_atom_site_label_1
_geom_bond_atom_site_label_2
_geom_bond_distance
_geom_bond_site_symmetry_2
_ccdc_geom_bond_type
O1         Al16 1.762       .   S
O1           C7 1.272       .   A
O2         Al17 1.762       .   S
O2           C8 1.272       .   A
O3         Al18 1.762       .   S
O3           C9 1.272       .   A
O4         Al18 1.762       .   S
O4           C7 1.272       .   A
O5         Al17 1.762       .   S
O5           C9 1.272       .   A
O6         Al16 1.762       .   S
O6           C8 1.272       .   A
C7          C96 1.540       .   S
C8          C66 1.540       .   S
C9          C56 1.540       .   S
O10        Al16 1.762       .   S
O10         C20 1.272       .   A
O11        Al17 1.762       .   S
O11         C21 1.272       .   A
O12        Al18 1.762       .   S
O12         C22 1.272       .   A
O13        Al18 1.762       .   S
O13         C20 1.272       .   A
O14        Al17 1.762       .   S
O14         C22 1.272       .   A
O15        Al16 1.762       .   S
O15         C21 1.272       .   A
Al16        O19 1.735       .   S
Al17        O19 1.735       .   S
Al18        O19 1.735       .   S
C20         C86 1.540       .   S
C21         C76 1.540       .   S
C22         C46 1.540       .   S
O23        Al38 1.762       .   S
O23         C29 1.272       .   A
O24        Al39 1.762       .   S
O24         C30 1.272       .   A
O25        Al40 1.762       .   S
O25         C31 1.272       .   A
O26        Al40 1.762       .   S
O26         C29 1.272       .   A
O27        Al39 1.762       .   S
O27         C31 1.272       .   A
O28        Al38 1.762       .   S
O28         C30 1.272       .   A
C29         C89 1.540   1_655   S
C30         C79 1.540   1_545   S
C31         C49 1.540       .   S
O32        Al38 1.762       .   S
O32         C42 1.272       .   A
O33        Al39 1.762       .   S
O33         C43 1.272       .   A
O34        Al40 1.762       .   S
O34         C44 1.272       .   A
O35        Al40 1.762       .   S
O35         C42 1.272       .   A
O36        Al39 1.762       .   S
O36         C44 1.272       .   A
O37        Al38 1.762       .   S
O37         C43 1.272       .   A
Al38        O41 1.735       .   S
Al39        O41 1.735       .   S
Al40        O41 1.735       .   S
C42         C99 1.540   1_654   S
C43         C69 1.540   1_544   S
C44         C59 1.540   1_554   S
C95         C96 1.540       .   A
C95        C100 1.540       .   A
C95        H101 1.140       .   S
C96         C97 1.540       .   A
C97         C98 1.540       .   A
C97        H102 1.140       .   S
C98         C99 1.540       .   A
C98        H103 1.140       .   S
C99        C100 1.540       .   A
C100       H104 1.140       .   S
C85         C86 1.540       .   A
C85         C90 1.540       .   A
C85         H91 1.140       .   S
C86         C87 1.540       .   A
C87         C88 1.540       .   A
C87         H92 1.140       .   S
C88         C89 1.540       .   A
C88         H93 1.140       .   S
C89         C90 1.540       .   A
C90         H94 1.140       .   S
C75         C76 1.540       .   A
C75         C80 1.540       .   A
C75         H81 1.140       .   S
C76         C77 1.540       .   A
C77         C78 1.540       .   A
C77         H82 1.140       .   S
C78         C79 1.540       .   A
C78         H83 1.140       .   S
C79         C80 1.540       .   A
C80         H84 1.140       .   S
C65         C66 1.540       .   A
C65         C70 1.540       .   A
C65         H71 1.140       .   S
C66         C67 1.540       .   A
C67         C68 1.540       .   A
C67         H72 1.140       .   S
C68         C69 1.540       .   A
C68         H73 1.140       .   S
C69         C70 1.540       .   A
C70         H74 1.140       .   S
C55         C56 1.540       .   A
C55         C60 1.540       .   A
C55         H61 1.140       .   S
C56         C57 1.540       .   A
C57         C58 1.540       .   A
C57         H62 1.140       .   S
C58         C59 1.540       .   A
C58         H63 1.140       .   S
C59         C60 1.540       .   A
C60         H64 1.140       .   S
C45         C46 1.540       .   A
C45         C50 1.540       .   A
C45         H51 1.140       .   S
C46         C47 1.540       .   A
C47         C48 1.540       .   A
C47         H52 1.140       .   S
C48         C49 1.540       .   A
C48         H53 1.140       .   S
C49         C50 1.540       .   A
C50         H54 1.140       .   S
