data_acs_v1-6c_Al_1_1-3B_4H_Ch
_audit_creation_date              2021-04-27
_audit_creation_method            'tobacco_3.0'
_symmetry_space_group_name_H-M    'P1'
_symmetry_Int_Tables_number       1
_symmetry_cell_setting            triclinic
loop_
_symmetry_equiv_pos_as_xyz
  x,y,z
_cell_length_a                    30.524850147901724
_cell_length_b                    30.524850069349544
_cell_length_c                    24.20642091878973
_cell_angle_alpha                 90.0000000302963
_cell_angle_beta                  89.99999976917127
_cell_angle_gamma                 120.00070771062919
loop_
_atom_site_label
_atom_site_type_symbol
_atom_site_fract_x
_atom_site_fract_y
_atom_site_fract_z
_atom_site_charge
O1         O    0.2560455574    0.6645096928    0.8017920435          0.7946
O2         O    0.4083622099    0.7439525307    0.8017920431          0.7946
O3         O    0.3354884497    0.5916415592    0.8017920433          0.7946
O4         O    0.2560441504    0.5916368431    0.8017920435          0.7946
O5         O    0.4083615713    0.6645135461    0.8017920431          0.7946
O6         O    0.3354904953    0.7439533936    0.8017920433          0.7946
C7         C    0.2398088068    0.6199553162    0.8201177597          0.7946
C8         C    0.3800446836    0.7601890092    0.8201177594          0.7946
C9         C    0.3800465091    0.6199556745    0.8201177594          0.7946
O10        O    0.2560455576    0.6645096929    0.6982079569          0.7946
O11        O    0.4083622101    0.7439525308    0.6982079566          0.7946
O12        O    0.3354884499    0.5916415593    0.6982079567          0.7946
O13        O    0.2560441506    0.5916368432    0.6982079569          0.7946
O14        O    0.4083615715    0.6645135462    0.6982079565          0.7946
O15        O    0.3354904955    0.7439533937    0.6982079567          0.7946
Al16      Al    0.3004959192    0.6995099819    0.7500041312             1.0
Al17      Al    0.3989185890    0.6995107912    0.7500041310             1.0
Al18      Al    0.3004920440    0.6010857789    0.7500041312             1.0
O19        O    0.3333034450    0.6667009231    0.7500041311          0.7946
C20        C    0.2398088071    0.6199553163    0.6798822407          0.7946
C21        C    0.3800446839    0.7601890093    0.6798822404          0.7946
C22        C    0.3800465094    0.6199556746    0.6798822404          0.7946
O23        O    0.7438881985    0.3355565432    0.3017920416          0.7946
O24        O    0.5915715460    0.2561137053    0.3017920420          0.7966
O25        O    0.6644453063    0.4084246768    0.3017920419          0.7946
O26        O    0.7438896056    0.4084293929    0.3017920417          0.7946
O27        O    0.5915721847    0.3355526899    0.3017920420          0.7946
O28        O    0.6644432606    0.2561128424    0.3017920418          0.7946
C29        C    0.7601249490    0.3801109198    0.3201177578          0.7946
C30        C    0.6198890722    0.2398772268    0.3201177581          0.7946
C31        C    0.6198872468    0.3801105615    0.3201177582          0.7946
O32        O    0.7438881987    0.3355565433    0.1982079551          0.7946
O33        O    0.5915715462    0.2561137054    0.1982079554          0.7946
O34        O    0.6644453065    0.4084246768    0.1982079553          0.7946
O35        O    0.7438896058    0.4084293930    0.1982079551          0.7946
O36        O    0.5915721849    0.3355526900    0.1982079554          0.7946
O37        O    0.6644432608    0.2561128425    0.1982079552          0.7946
Al38      Al    0.6994378370    0.3005562542    0.2500041296             1.0
Al39      Al    0.6010151672    0.3005554449    0.2500041298             1.0
Al40      Al    0.6994417121    0.3989804571    0.2500041296             1.0
O41        O    0.6666303112    0.3333653130    0.2500041297          0.7946
C42        C    0.7601249493    0.3801109199    0.1798822388          0.7946
C43        C    0.6198890725    0.2398772269    0.1798822391          0.7946
C44        C    0.6198872471    0.3801105616    0.1798822392          0.7946
C195       C    0.1917885241    0.5959449278    0.8561331306         -0.2197
C196       C    0.1745261182    0.5449999746    0.8851194791         -0.2969
C197       C    0.1282810573    0.5226279853    0.9237966390         -0.3267
C198       C    0.0993786982    0.5512933694    0.9335574187         -0.1122
C199       C    0.1172242687    0.6027472995    0.9054425667         -0.3145
C200       C    0.1633573922    0.6250091512    0.8665575736          -0.307
C201       C    0.0522618526    0.5280871326    0.9709310746         -0.1863
C202       C    0.0337856121    0.4759857780    0.9976888403         -0.2974
C203       C    0.9858023707    0.4519703053    0.0337094935         -0.2974
C204       C    0.9562865167    0.4800814612    0.0428711615         -0.1863
C205       C    0.9752362177    0.5325808143    0.0168973096         -0.2976
C206       C    0.0232795836    0.5566210902    0.9809137914         -0.2975
C207       C    0.9074463494    0.4553190888    0.0774379091         -0.1124
C208       C    0.8888609361    0.4029630116    0.1035525563         -0.3265
C209       C    0.8392705415    0.3774036851    0.1368919761         -0.2972
C210       C    0.8081452321    0.4041213083    0.1438668680         -0.2195
C211       C    0.8270998686    0.4568265491    0.1183704917         -0.3071
C212       C    0.8768721020    0.4825146250    0.0852914323         -0.3144
H214       H    0.1958066026    0.5236833720    0.8776920641         -0.0895
H215       H    0.1152415110    0.4847134692    0.9449631165         -0.1175
H216       H    0.0960766614    0.6241864760    0.9130819435         -0.1181
H217       H    0.1763956301    0.6629359803    0.8453891900         -0.0906
H218       H    0.0555618802    0.4551196502    0.9906144687         -0.1215
H219       H    0.9718888050    0.4132299931    0.0532480446         -0.1215
H220       H    0.9535219227    0.5535023001    0.0240413331         -0.1208
H221       H    0.0372270228    0.5953858893    0.9614291838         -0.1208
H222       H    0.9117437923    0.3830662492    0.0980676045         -0.1175
H223       H    0.8254542785    0.3386109458    0.1561169313         -0.0895
H225       H    0.8042745201    0.4767727405    0.1238887664         -0.0907
H226       H    0.8908996117    0.5214546719    0.0663444519         -0.1182
C165       C    0.1917885227    0.5959449271    0.6438668683         -0.2197
C166       C    0.1416404013    0.5531335946    0.6671739954         -0.2969
C167       C    0.0930272879    0.5313472957    0.6322624130         -0.3267
C168       C    0.0945797184    0.5524803001    0.5740737140         -0.1122
C169       C    0.1445200213    0.5959962432    0.5511528782         -0.3145
C170       C    0.1931945892    0.6176295196    0.5859965733          -0.307
C171       C    0.0462399185    0.5295765367    0.5386447487         -0.1863
C172       C    0.9967604112    0.4851432170    0.5611870683         -0.2974
C173       C    0.9487421853    0.4611363972    0.5252220463         -0.2974
C174       C    0.9502843483    0.4815659771    0.4666732321         -0.1863
C175       C    0.9995345909    0.5265711004    0.4444644429         -0.2976
C176       C    0.0475534940    0.5506174264    0.4804868602         -0.2975
C177       C    0.9026915879    0.4564950840    0.4301229113         -0.1124
C178       C    0.8534999343    0.4117088451    0.4526770143         -0.3265
C179       C    0.8061744717    0.3855893334    0.4157359958         -0.2972
C180       C    0.8081452334    0.4041213090    0.3561331302         -0.2195
C181       C    0.8571733073    0.4493884896    0.3338079968         -0.3071
C182       C    0.9044263771    0.4756996297    0.3708929234         -0.3144
H184       H    0.1405548175    0.5373487891    0.7101669868         -0.0895
H185       H    0.0559426093    0.4993798597    0.6493314891         -0.1175
H186       H    0.1455524199    0.6119496413    0.5082437934         -0.1181
H187       H    0.2302866381    0.6496071220    0.5689156028         -0.0906
H188       H    0.9957749249    0.4699067513    0.6044562198         -0.1215
H189       H    0.9121585174    0.4280030791    0.5417325341         -0.1215
H190       H    0.0005144898    0.5418796337    0.4012330713         -0.1208
H191       H    0.0841201805    0.5837878094    0.4640032963         -0.1208
H192       H    0.8521662940    0.3978015462    0.4966700156         -0.1175
H193       H    0.7698020046    0.3523754178    0.4323789637         -0.0895
H195       H    0.8585223656    0.4633556277    0.2898486021         -0.0907
H196       H    0.9407304752    0.5091300103    0.3544166140         -0.1182
C135       C    0.5958780920    0.1918553224    0.3561340182         -0.2197
C136       C    0.5431403831    0.1723948723    0.3816256402         -0.2969
C137       C    0.5179399581    0.1226820143    0.4147884771         -0.3267
C138       C    0.5454715749    0.0923896538    0.4223384464         -0.1122
C139       C    0.5977971806    0.1113040854    0.3959227489         -0.3145
C140       C    0.6230940086    0.1611582111    0.3629547133          -0.307
C141       C    0.5208297901    0.0435125989    0.4569131031         -0.1863
C142       C    0.4691505688    0.0255536226    0.4844938939         -0.2974
C143       C    0.4451181198    0.9775492469    0.5204809408         -0.2974
C144       C    0.4728560176    0.9475757243    0.5289143496         -0.1863
C145       C    0.5241375845    0.9650327433    0.5005664107         -0.2976
C146       C    0.5481409638    0.0130311991    0.4645114785         -0.2975
C147       C    0.4495458020    0.9005154830    0.5663114488         -0.1124
C148       C    0.3981388821    0.8830934317    0.5942765154         -0.3265
C149       C    0.3753176609    0.8368594507    0.6329531422         -0.2972
C150       C    0.4040556641    0.8082109137    0.6438659804         -0.2195
C151       C    0.4551784348    0.8252257887    0.6152845918         -0.3071
C152       C    0.4778551359    0.8713065980    0.5763356083         -0.3144
H154       H    0.5228639376    0.1949505780    0.3762263885         -0.0895
H155       H    0.4790388243    0.1084327588    0.4340317013         -0.1175
H156       H    0.6179759825    0.0886112847    0.4011046659         -0.1181
H157       H    0.6620066488    0.1754051694    0.3437080105         -0.0906
H158       H    0.4487971341    0.0479584775    0.4784194379         -0.1215
H159       H    0.4070001060    0.9643983975    0.5412326937         -0.1215
H160       H    0.5444635798    0.9425883575    0.5065491118         -0.1208
H161       H    0.5862288135    0.0261489234    0.4437071312         -0.1208
H162       H    0.3770492521    0.9045139704    0.5864666247         -0.1175
H163       H    0.3373294484    0.8240293052    0.6537465416         -0.0895
H165       H    0.4762620079    0.8037947357    0.6230196399         -0.0907
H166       H    0.5156900466    0.8839794632    0.5552341702         -0.1182
C105       C    0.5958780923    0.1918553225    0.1438659794         -0.2197
C106       C    0.5448330717    0.1459468265    0.1604313924         -0.2969
C107       C    0.5194435238    0.0991889901    0.1225695529         -0.3267
C108       C    0.5450856596    0.0984195343    0.0680729836         -0.1122
C109       C    0.5956581398    0.1447263360    0.0509300049         -0.3145
C110       C    0.6211578726    0.1914100994    0.0889394726          -0.307
C111       C    0.5203490955    0.0510233941    0.0311434129         -0.1863
C112       C    0.4705090259    0.0043279002    0.0492587287         -0.2974
C113       C    0.4464766242    0.9563227833    0.0132728607         -0.2974
C114       C    0.4723778221    0.9550474683    0.9592042650         -0.1863
C115       C    0.5217691536    0.0020391821    0.9405868553         -0.2976
C116       C    0.5457697120    0.0500817148    0.9765716973         -0.2975
C117       C    0.4491628527    0.9064990152    0.9241736839         -0.1124
C118       C    0.3996328743    0.8597499864    0.9428436588         -0.3265
C119       C    0.3769962900    0.8106310746    0.9087545783         -0.2972
C120       C    0.4040556639    0.8082109136    0.8561340191         -0.2195
C121       C    0.4532592992    0.8552120397    0.8370320054         -0.3071
C122       C    0.4757345623    0.9044402952    0.8709759969         -0.3144
H124       H    0.5259681735    0.1464472800    0.2009023660         -0.0895
H125       H    0.4818173881    0.0650180461    0.1350053099         -0.1175
H126       H    0.6144107684    0.1443173153    0.0103129667         -0.1181
H127       H    0.6587949205    0.2255880297    0.0764924318         -0.0906
H128       H    0.4515292209    0.0052699621    0.0894627924         -0.1215
H129       H    0.4097395620    0.9215947378    0.0268326365         -0.1215
H130       H    0.5407158818    0.0011456726    0.9003344786         -0.1208
H131       H    0.5824732508    0.0848291254    0.9629810472         -0.1208
H132       H    0.3798043897    0.8614652840    0.9819883412         -0.1175
H133       H    0.3404034459    0.7759984710    0.9226309140         -0.0895
H135       H    0.4730777651    0.8535481304    0.7978637294         -0.0907
H136       H    0.5121556196    0.9392044436    0.8569484174         -0.1182
C75        C    0.4040574995    0.5959442461    0.8561345827         -0.2197
C76        C    0.3704524168    0.5495664272    0.8922593407         -0.2969
C77        C    0.3942668733    0.5237757845    0.9255926554         -0.3267
C78        C    0.4516964380    0.5443326965    0.9226794297         -0.1122
C79        C    0.4852083559    0.5901104737    0.8856928180         -0.3145
C80        C    0.4613999692    0.6160405153    0.8525416856          -0.307
C81        C    0.4755773160    0.5193958547    0.9573475910         -0.1863
C82        C    0.4420753721    0.4745326584    0.9954184690         -0.2974
C83        C    0.4660427474    0.4505010875    0.0314133319         -0.2974
C84        C    0.5235474294    0.4714301549    0.0293488927         -0.1863
C85        C    0.5569575893    0.5157375247    0.9905711392         -0.2976
C86        C    0.5329538309    0.5397318623    0.9545164515         -0.2975
C87        C    0.5476550242    0.4484161263    0.0666476003         -0.1124
C88        C    0.5140185922    0.4039446870    0.1050857846         -0.3265
C89        C    0.5381062718    0.3817006616    0.1436062560         -0.2972
C90        C    0.5958762566    0.4041219900    0.1438654159         -0.2195
C91        C    0.6294795401    0.4481776853    0.1048499832         -0.3071
C92        C    0.6053332126    0.4702256290    0.0660821749         -0.3144
H94        H    0.3279617349    0.5344927991    0.8945900282         -0.0895
H95        H    0.3694562388    0.4896507121    0.9526820000         -0.1175
H96        H    0.5276841861    0.6050408701    0.8831586491         -0.1181
H97        H    0.4862241742    0.6501749188    0.8254457741         -0.0906
H98        H    0.3995283052    0.4592621273    0.9970903766         -0.1215
H99        H    0.4413135096    0.4174888449    0.0599047441         -0.1215
H100       H    0.5994963223    0.5309629623    0.9888118820         -0.1208
H101       H    0.5576725705    0.5727036315    0.9259774524         -0.1208
H102       H    0.4712991267    0.3875878274    0.1051341473         -0.1175
H103       H    0.5132312146    0.3488645411    0.1721412887         -0.0895
H105       H    0.6721897637    0.4645159738    0.1047286620         -0.0907
H106       H    0.6301382154    0.5028517167    0.0372666093         -0.1182
C45        C    0.4040574997    0.5959442462    0.6438654169         -0.2197
C46        C    0.4128261648    0.6082485221    0.5818068074         -0.2969
C47        C    0.4396574073    0.5866357333    0.5466271397         -0.3267
C48        C    0.4578098144    0.5527989227    0.5735790218         -0.1122
C49        C    0.4499559621    0.5412905222    0.6358825761         -0.3145
C50        C    0.4229098891    0.5627367921    0.6710152583          -0.307
C51        C    0.4832489986    0.5300201310    0.5379571357         -0.1863
C52        C    0.4897222230    0.5405173108    0.4754204000         -0.2974
C53        C    0.5137344823    0.5165478984    0.4393980666         -0.2974
C54        C    0.5311940343    0.4820197019    0.4659711816         -0.1863
C55        C    0.5255248230    0.4722072573    0.5286665412         -0.2976
C56        C    0.5015521323    0.4962446197    0.5647022149         -0.2975
C57        C    0.5537120074    0.4568042553    0.4296453641         -0.1124
C58        C    0.5595456253    0.4669936691    0.3670504681         -0.3265
C59        C    0.5807483059    0.4407542979    0.3302956918         -0.2972
C60        C    0.5958762565    0.4041219899    0.3561345816         -0.2195
C61        C    0.5906882953    0.3944568883    0.4188912793         -0.3071
C62        C    0.5697512339    0.4209492456    0.4556949324         -0.3144
H64        H    0.3991833698    0.6331254417    0.5618204523         -0.0895
H65        H    0.4458334354    0.5954231330    0.5005731401         -0.1175
H66        H    0.4638209660    0.5165986688    0.6559273253         -0.1181
H67        H    0.4167362325    0.5539432143    0.7170826788         -0.0906
H68        H    0.4765264279    0.5658944495    0.4557847400         -0.1215
H69        H    0.5182397564    0.5240216283    0.3930143620         -0.1215
H70        H    0.5387983262    0.4469041820    0.5483368908         -0.1208
H71        H    0.4971012248    0.4888202454    0.6110938076         -0.1208
H72        H    0.5480311134    0.4938515861    0.3479038507         -0.1175
H73        H    0.5849632499    0.4482040216    0.2839568110         -0.0895
H75        H    0.6022471189    0.3676545651    0.4380780789         -0.0907
H76        H    0.5658228793    0.4137833939    0.5020960708         -0.1182
loop_
_geom_bond_atom_site_label_1
_geom_bond_atom_site_label_2
_geom_bond_distance
_geom_bond_site_symmetry_2
_ccdc_geom_bond_type
O1         Al16 1.762       .   S
O1           C7 1.272       .   A
O2         Al17 1.762       .   S
O2           C8 1.272       .   A
O3         Al18 1.762       .   S
O3           C9 1.272       .   A
O4         Al18 1.762       .   S
O4           C7 1.272       .   A
O5         Al17 1.762       .   S
O5           C9 1.272       .   A
O6         Al16 1.762       .   S
O6           C8 1.272       .   A
C7         C195 1.540       .   S
C8         C120 1.540       .   S
C9          C75 1.540       .   S
O10        Al16 1.762       .   S
O10         C20 1.272       .   A
O11        Al17 1.762       .   S
O11         C21 1.272       .   A
O12        Al18 1.762       .   S
O12         C22 1.272       .   A
O13        Al18 1.762       .   S
O13         C20 1.272       .   A
O14        Al17 1.762       .   S
O14         C22 1.272       .   A
O15        Al16 1.762       .   S
O15         C21 1.272       .   A
Al16        O19 1.735       .   S
Al17        O19 1.735       .   S
Al18        O19 1.735       .   S
C20        C165 1.540       .   S
C21        C150 1.540       .   S
C22         C45 1.540       .   S
O23        Al38 1.762       .   S
O23         C29 1.272       .   A
O24        Al39 1.762       .   S
O24         C30 1.272       .   A
O25        Al40 1.762       .   S
O25         C31 1.272       .   A
O26        Al40 1.762       .   S
O26         C29 1.272       .   A
O27        Al39 1.762       .   S
O27         C31 1.272       .   A
O28        Al38 1.762       .   S
O28         C30 1.272       .   A
C29        C180 1.540   1_655   S
C30        C135 1.540   1_545   S
C31         C60 1.540       .   S
O32        Al38 1.762       .   S
O32         C42 1.272       .   A
O33        Al39 1.762       .   S
O33         C43 1.272       .   A
O34        Al40 1.762       .   S
O34         C44 1.272       .   A
O35        Al40 1.762       .   S
O35         C42 1.272       .   A
O36        Al39 1.762       .   S
O36         C44 1.272       .   A
O37        Al38 1.762       .   S
O37         C43 1.272       .   A
Al38        O41 1.735       .   S
Al39        O41 1.735       .   S
Al40        O41 1.735       .   S
C42        C210 1.540   1_654   S
C43        C105 1.540   1_544   S
C44         C90 1.540   1_554   S
C196       C195 1.539       .   A
C195       C200 1.540       .   A
H214       C196 1.140       .   S
C197       C196 1.540       .   A
H215       C197 1.140       .   S
C197       C198 1.540       .   A
C201       C198 1.539       .   S
C199       C198 1.540       .   A
H216       C199 1.141       .   S
C200       C199 1.541       .   A
H217       C200 1.141       .   S
C206       C201 1.539       .   A
C202       C201 1.540       .   A
H218       C202 1.140       .   S
C202       C203 1.539       .   A
H219       C203 1.140       .   S
C204       C203 1.540       .   A
C207       C204 1.539       .   S
C205       C204 1.540       .   A
H220       C205 1.140       .   S
C206       C205 1.540       .   A
H221       C206 1.140       .   S
C212       C207 1.540       .   A
C207       C208 1.539       .   A
H222       C208 1.140       .   S
C209       C208 1.540       .   A
H223       C209 1.139       .   S
C210       C209 1.540       .   A
C211       C210 1.541       .   A
C212       C211 1.541       .   A
C211       H225 1.139       .   S
C212       H226 1.139       .   S
C166       C165 1.539       .   A
C165       C170 1.540       .   A
H184       C166 1.140       .   S
C167       C166 1.540       .   A
H185       C167 1.140       .   S
C167       C168 1.540       .   A
C171       C168 1.539       .   S
C169       C168 1.540       .   A
H186       C169 1.141       .   S
C170       C169 1.541       .   A
H187       C170 1.141       .   S
C176       C171 1.539       .   A
C172       C171 1.540       .   A
H188       C172 1.140       .   S
C172       C173 1.539       .   A
H189       C173 1.140       .   S
C174       C173 1.540       .   A
C177       C174 1.539       .   S
C175       C174 1.540       .   A
H190       C175 1.140       .   S
C176       C175 1.540       .   A
H191       C176 1.140       .   S
C182       C177 1.540       .   A
C177       C178 1.539       .   A
H192       C178 1.140       .   S
C179       C178 1.540       .   A
H193       C179 1.139       .   S
C180       C179 1.540       .   A
C181       C180 1.541       .   A
C182       C181 1.541       .   A
C181       H195 1.139       .   S
C182       H196 1.139       .   S
C136       C135 1.539       .   A
C135       C140 1.540       .   A
H154       C136 1.140       .   S
C137       C136 1.540       .   A
H155       C137 1.140       .   S
C137       C138 1.540       .   A
C141       C138 1.539       .   S
C139       C138 1.540       .   A
H156       C139 1.141       .   S
C140       C139 1.541       .   A
H157       C140 1.141       .   S
C146       C141 1.539       .   A
C142       C141 1.540       .   A
H158       C142 1.140       .   S
C142       C143 1.539       .   A
H159       C143 1.140       .   S
C144       C143 1.540       .   A
C147       C144 1.539       .   S
C145       C144 1.540       .   A
H160       C145 1.140       .   S
C146       C145 1.540       .   A
H161       C146 1.140       .   S
C152       C147 1.540       .   A
C147       C148 1.539       .   A
H162       C148 1.140       .   S
C149       C148 1.540       .   A
H163       C149 1.139       .   S
C150       C149 1.540       .   A
C151       C150 1.541       .   A
C152       C151 1.541       .   A
C151       H165 1.139       .   S
C152       H166 1.139       .   S
C106       C105 1.539       .   A
C105       C110 1.540       .   A
H124       C106 1.140       .   S
C107       C106 1.540       .   A
H125       C107 1.140       .   S
C107       C108 1.540       .   A
C111       C108 1.539       .   S
C109       C108 1.540       .   A
H126       C109 1.141       .   S
C110       C109 1.541       .   A
H127       C110 1.141       .   S
C116       C111 1.539       .   A
C112       C111 1.540       .   A
H128       C112 1.140       .   S
C112       C113 1.539       .   A
H129       C113 1.140       .   S
C114       C113 1.540       .   A
C117       C114 1.539       .   S
C115       C114 1.540       .   A
H130       C115 1.140       .   S
C116       C115 1.540       .   A
H131       C116 1.140       .   S
C122       C117 1.540       .   A
C117       C118 1.539       .   A
H132       C118 1.140       .   S
C119       C118 1.540       .   A
H133       C119 1.139       .   S
C120       C119 1.540       .   A
C121       C120 1.541       .   A
C122       C121 1.541       .   A
C121       H135 1.139       .   S
C122       H136 1.139       .   S
C76         C75 1.539       .   A
C75         C80 1.540       .   A
H94         C76 1.140       .   S
C77         C76 1.540       .   A
H95         C77 1.140       .   S
C77         C78 1.540       .   A
C81         C78 1.539       .   S
C79         C78 1.540       .   A
H96         C79 1.141       .   S
C80         C79 1.541       .   A
H97         C80 1.141       .   S
C86         C81 1.539       .   A
C82         C81 1.540       .   A
H98         C82 1.140       .   S
C82         C83 1.539       .   A
H99         C83 1.140       .   S
C84         C83 1.540       .   A
C87         C84 1.539       .   S
C85         C84 1.540       .   A
H100        C85 1.140       .   S
C86         C85 1.540       .   A
H101        C86 1.140       .   S
C92         C87 1.540       .   A
C87         C88 1.539       .   A
H102        C88 1.140       .   S
C89         C88 1.540       .   A
H103        C89 1.139       .   S
C90         C89 1.540       .   A
C91         C90 1.541       .   A
C92         C91 1.541       .   A
C91        H105 1.139       .   S
C92        H106 1.139       .   S
C46         C45 1.539       .   A
C45         C50 1.540       .   A
H64         C46 1.140       .   S
C47         C46 1.540       .   A
H65         C47 1.140       .   S
C47         C48 1.540       .   A
C51         C48 1.539       .   S
C49         C48 1.540       .   A
H66         C49 1.141       .   S
C50         C49 1.541       .   A
H67         C50 1.141       .   S
C56         C51 1.539       .   A
C52         C51 1.540       .   A
H68         C52 1.140       .   S
C52         C53 1.539       .   A
H69         C53 1.140       .   S
C54         C53 1.540       .   A
C57         C54 1.539       .   S
C55         C54 1.540       .   A
H70         C55 1.140       .   S
C56         C55 1.540       .   A
H71         C56 1.140       .   S
C62         C57 1.540       .   A
C57         C58 1.539       .   A
H72         C58 1.140       .   S
C59         C58 1.540       .   A
H73         C59 1.139       .   S
C60         C59 1.540       .   A
C61         C60 1.541       .   A
C62         C61 1.541       .   A
C61         H75 1.139       .   S
C62         H76 1.139       .   S
