data_acs_v1-6c_Al_1_1-3B_4H_Ch
_audit_creation_date              2021-04-23
_audit_creation_method            'tobacco_3.0'
_symmetry_space_group_name_H-M    'P1'
_symmetry_Int_Tables_number       1
_symmetry_cell_setting            triclinic
loop_
_symmetry_equiv_pos_as_xyz
  x,y,z
_cell_length_a                    30.524849411268356
_cell_length_b                    30.52485054837782
_cell_length_c                    24.206421108729607
_cell_angle_alpha                 90.00000016953169
_cell_angle_beta                  89.99999961420745
_cell_angle_gamma                 120.00070786200946
loop_
_atom_site_label
_atom_site_type_symbol
_atom_site_fract_x
_atom_site_fract_y
_atom_site_fract_z
_atom_site_charge
O1         O    0.3354903066    0.7439544411    0.6982079573          0.7946
O2         O    0.2560474680    0.5916377904    0.6982079573          0.7946
O3         O    0.4083584430    0.6645115513    0.6982079568          0.7946
O4         O    0.4083631584    0.7439558491    0.6982079570          0.7946
O5         O    0.3354864548    0.5916384300    0.6982079570          0.7946
O6         O    0.2560466043    0.6645095036    0.6982079574          0.7946
C7         C    0.3800446844    0.7601911919    0.6798822410          0.7946
C8         C    0.2398109888    0.6199553159    0.6798822414          0.7946
C9         C    0.3800443275    0.6199534922    0.6798822408          0.7946
O10        O    0.3354903063    0.7439544411    0.8017920430          0.7946
O11        O    0.2560474677    0.5916377903    0.8017920431          0.7946
O12        O    0.4083584427    0.6645115513    0.8017920426          0.7946
O13        O    0.4083631581    0.7439558491    0.8017920427          0.7946
O14        O    0.3354864546    0.5916384300    0.8017920427          0.7946
O15        O    0.2560466040    0.6645095036    0.8017920432          0.7946
Al16      Al    0.3004900168    0.6995040798    0.7499958691             1.0
Al17      Al    0.3004892085    0.6010814118    0.7499958689             1.0
Al18      Al    0.3989142226    0.6995079562    0.7499958687             1.0
O19        O    0.3332990769    0.6666965550    0.7499958689          0.7946
C20        C    0.3800446840    0.7601911919    0.8201177589          0.7946
C21        C    0.2398109884    0.6199553158    0.8201177592          0.7946
C22        C    0.3800443271    0.6199534922    0.8201177587          0.7946
O23        O    0.6644434466    0.2561117935    0.1982079557          0.7946
O24        O    0.7438862852    0.4084284442    0.1982079557          0.7946
O25        O    0.5915753102    0.3355546833    0.1982079562          0.7946
O26        O    0.5915705948    0.2561103855    0.1982079560          0.7946
O27        O    0.6644472984    0.4084278046    0.1982079560          0.7946
O28        O    0.7438871489    0.3355567310    0.1982079556          0.7946
C29        C    0.6198890690    0.2398750427    0.1798822398          0.7946
C30        C    0.7601227645    0.3801109188    0.1798822395          0.7946
C31        C    0.6198894259    0.3801127424    0.1798822401          0.7946
O32        O    0.6644434463    0.2561117935    0.3017920415          0.7946
O33        O    0.7438862849    0.4084284442    0.3017920415          0.7946
O34        O    0.5915753099    0.3355546833    0.3017920420          0.7946
O35        O    0.5915705945    0.2561103855    0.3017920418          0.7946
O36        O    0.6644472981    0.4084278045    0.3017920418          0.7946
O37        O    0.7438871486    0.3355567310    0.3017920413          0.7946
Al38      Al    0.6994437361    0.3005621548    0.2499958674             1.0
Al39      Al    0.6994445444    0.3989848228    0.2499958676             1.0
Al40      Al    0.6010195303    0.3005582783    0.2499958678             1.0
O41        O    0.6666346760    0.3333696795    0.2499958676          0.7946
C42        C    0.6198890685    0.2398750426    0.3201177577          0.7946
C43        C    0.7601227641    0.3801109187    0.3201177574          0.7946
C44        C    0.6198894255    0.3801127423    0.3201177580          0.7946
C195       C    0.1917890849    0.5959443355    0.8561340179         -0.2197
C196       C    0.1901007380    0.6219944106    0.9098846901         -0.2969
C197       C    0.1410026145    0.5995192473    0.9440250053         -0.3267
C198       C    0.0935635443    0.5510355957    0.9243103515         -0.1122
C199       C    0.0949170541    0.5255096334    0.8699713993         -0.3145
C200       C    0.1441112927    0.5478810277    0.8359540891          -0.307
C201       C    0.0450101435    0.5278286469    0.9593996456         -0.1863
C202       C    0.0443263055    0.5527340505    0.0144492729         -0.2974
C203       C    0.9963370864    0.5287687974    0.0504604215         -0.2974
C204       C    0.9490701047    0.4798408538    0.0313958642         -0.1863
C205       C    0.9494451838    0.4553942888    0.9758862898         -0.2976
C206       C    0.9974481365    0.4794176007    0.9398385064         -0.2975
C207       C    0.9016766826    0.4550535752    0.0682631813         -0.1124
C208       C    0.9014397069    0.4798320115    0.1235538774         -0.3265
C209       C    0.8546257772    0.4544397486    0.1613083414         -0.2972
C210       C    0.8081446681    0.4041218991    0.1438659808         -0.2195
C211       C    0.8081135463    0.3796758816    0.0881801090         -0.3071
C212       C    0.8548477915    0.4052494104    0.0502701390         -0.3144
H214       H    0.2253001481    0.6577703851    0.9245899272         -0.0895
H215       H    0.1398276972    0.6185796343    0.9840574616         -0.1175
H216       H    0.0596293500    0.4898523610    0.8551264249         -0.1181
H217       H    0.1452789073    0.5288099570    0.7959101952         -0.0906
H218       H    0.0794640770    0.5888285342    0.0286211602         -0.1215
H219       H    0.9958953649    0.5469932442    0.0914206933         -0.1215
H220       H    0.9142849030    0.4193478262    0.9616497132         -0.1208
H221       H    0.9978714358    0.4612281712    0.8988490191         -0.1208
H222       H    0.9359787131    0.5168995348    0.1366033865         -0.1175
H223       H    0.8544865687    0.4727133519    0.2022813345         -0.0895
H225       H    0.7735736684    0.3426450495    0.0750710899         -0.0907
H226       H    0.8549105311    0.3871807604    0.0091176036         -0.1182
C165       C    0.1917890832    0.5959443346    0.6438659808         -0.2197
C166       C    0.1683518408    0.5406447251    0.6246980981         -0.2969
C167       C    0.1186248496    0.5158173405    0.5915577423         -0.3267
C168       C    0.0922970911    0.5462985501    0.5777034256         -0.1122
C169       C    0.1151812012    0.6013057595    0.5978066985         -0.3145
C170       C    0.1650505526    0.6262023506    0.6307505152          -0.307
C171       C    0.0434102063    0.5218442348    0.5431444030         -0.1863
C172       C    0.0214890658    0.4673135195    0.5218640840         -0.2974
C173       C    0.9734819936    0.4432814872    0.4858813242         -0.2974
C174       C    0.9474726425    0.4738656965    0.4711442503         -0.1863
C175       C    0.9688832211    0.5281004256    0.4932054021         -0.2976
C176       C    0.0168822906    0.5521092140    0.5292593595         -0.2975
C177       C    0.9004236762    0.4503668212    0.4337292166         -0.1124
C178       C    0.8790365071    0.3960349617    0.4120693173         -0.3265
C179       C    0.8328127604    0.3728502211    0.3733764074         -0.2972
C180       C    0.8081446697    0.4041219000    0.3561340179         -0.2195
C181       C    0.8291211693    0.4582529013    0.3784157959         -0.3071
C182       C    0.8751871609    0.4813268917    0.4173883515         -0.3144
H184       H    0.1879750066    0.5181592338    0.6347605538         -0.0895
H185       H    0.1014351792    0.4749760598    0.5769902497         -0.1175
H186       H    0.0954196253    0.6237224985    0.5879636693         -0.1181
H187       H    0.1822391044    0.6670560781    0.6453196123         -0.0906
H188       H    0.0409645483    0.4448246948    0.5325967089         -0.1215
H189       H    0.9574023163    0.4030136409    0.4697868729         -0.1215
H190       H    0.9493680161    0.5505728871    0.4825648371         -0.1208
H191       H    0.0329279247    0.5923536487    0.5454078651         -0.1208
H192       H    0.8975157547    0.3730324797    0.4245563342         -0.1175
H193       H    0.8170498098    0.3326846962    0.3572466337         -0.0895
H195       H    0.8106316816    0.4812570330    0.3660031855         -0.0907
H196       H    0.8907877957    0.5213762679    0.4338341720         -0.1182
C135       C    0.4040550722    0.8082114752    0.6438668689         -0.2197
C136       C    0.4590711999    0.8501079844    0.6540525085         -0.2969
C137       C    0.4839479250    0.8966316715    0.6158183791         -0.3267
C138       C    0.4538014367    0.9011732190    0.5673201583         -0.1122
C139       C    0.3990935289    0.8587997576    0.5564319065         -0.3145
C140       C    0.3741440099    0.8123672896    0.5948409260          -0.307
C141       C    0.4782806573    0.9484478572    0.5301974032         -0.1863
C142       C    0.5324896523    0.9913180705    0.5422298044         -0.2974
C143       C    0.5565219223    0.0393190881    0.5062374193         -0.2974
C144       C    0.5262588726    0.0444252922    0.4582606574         -0.1843
C145       C    0.4723593344    0.0011885270    0.4456143355         -0.2976
C146       C    0.4483511014    0.9531438709    0.4815958002         -0.2975
C147       C    0.5497329607    0.0930976447    0.4234270749         -0.1124
C148       C    0.6037334903    0.1360595542    0.4360748092         -0.3265
C149       C    0.6268704866    0.1854014821    0.4023403189         -0.2972
C150       C    0.5958786808    0.1918547593    0.3561331299         -0.2195
C151       C    0.5420899977    0.1485880382    0.3429695423         -0.3071
C152       C    0.5190682489    0.0991110255    0.3765180155         -0.3144
H154       H    0.4813055194    0.8468330793    0.6901115689         -0.0895
H155       H    0.5245735723    0.9278625688    0.6235789326         -0.1175
H156       H    0.3769317746    0.8619648021    0.5201974818         -0.1181
H157       H    0.3335060236    0.7811304908    0.5870708136         -0.0906
H158       H    0.5547369384    0.9875635709    0.5779615592         -0.1215
H159       H    0.5965464345    0.0712436480    0.5153391208         -0.1215
H160       H    0.4501298691    0.0048878408    0.4098237206         -0.1208
H161       H    0.4083508999    0.9211947966    0.4724550370         -0.1208
H162       H    0.6265238266    0.1313874103    0.4705175764         -0.1175
H163       H    0.6667891200    0.2172409171    0.4117749830         -0.0895
H165       H    0.5192990204    0.1532047405    0.3084967371         -0.0907
H166       H    0.4792707120    0.0671117356    0.3668870946         -0.1182
C105       C    0.5958786812    0.1918547597    0.1438668681         -0.2197
C106       C    0.6075978434    0.1491663824    0.1553124920         -0.2969
C107       C    0.5811249743    0.0999121491    0.1214203352         -0.3267
C108       C    0.5428431391    0.0933366600    0.0761555851         -0.1122
C109       C    0.5303388854    0.1356134283    0.0654202934         -0.3145
C110       C    0.5570000636    0.1849758101    0.0991703163          -0.307
C111       C    0.5175991165    0.0446767143    0.0412356746         -0.1863
C112       C    0.5313144387    0.0031519117    0.0511294696         -0.2974
C113       C    0.5073170749    0.9551349799    0.0151623911         -0.2974
C114       C    0.4696531757    0.9487299848    0.9692501027         -0.1863
C115       C    0.4552584550    0.9898543588    0.9599620002         -0.2976
C116       C    0.4792323484    0.0378633528    0.9960001728         -0.2975
C117       C    0.4469297875    0.9014583622    0.9321891516         -0.1124
C118       C    0.4612463612    0.8603519435    0.9418871783         -0.3265
C119       C    0.4397131863    0.8136538898    0.9039485376         -0.2972
C120       C    0.4040550717    0.8082114749    0.8561331306         -0.2195
C121       C    0.3891748955    0.8490114209    0.8468912834         -0.3071
C122       C    0.4104935643    0.8955815228    0.8850621747         -0.3144
H124       H    0.6361095550    0.1541405394    0.1886700804         -0.0895
H125       H    0.5900631467    0.0684233371    0.1295916008         -0.1175
H126       H    0.5016340100    0.1305365980    0.0322253011         -0.1181
H127       H    0.5480535835    0.2164694652    0.0909911747         -0.0906
H128       H    0.5594164636    0.0080951087    0.0849716085         -0.1215
H129       H    0.5177036939    0.9245048173    0.0222063981         -0.1215
H130       H    0.4270880963    0.9848863676    0.9261881814         -0.1208
H131       H    0.4688015923    0.0684654255    0.9890007527         -0.1208
H132       H    0.4879009051    0.8645671425    0.9770571449         -0.1175
H133       H    0.4503919692    0.7832859215    0.9110439416         -0.0895
H135       H    0.3624802659    0.8447979702    0.8117766589         -0.0907
H136       H    0.3995843863    0.9258199917    0.8782306305         -0.1182
C75        C    0.4040557541    0.5959425006    0.8561345821         -0.2197
C76        C    0.4474149062    0.5893460466    0.8331317398         -0.2969
C77        C    0.4734054138    0.5681933352    0.8703798971         -0.3267
C78        C    0.4560758927    0.5537450388    0.9306826465         -0.1122
C79        C    0.4133798741    0.5612748932    0.9540594365         -0.3145
C80        C    0.3872354216    0.5822278158    0.9167085435          -0.307
C81        C    0.4811120732    0.5311871355    0.9672966141         -0.1863
C82        C    0.5228029235    0.5224408959    0.9432297252         -0.2974
C83        C    0.5468336337    0.4984620766    0.9792077584         -0.2974
C84        C    0.5290748668    0.4831783527    0.0392410454         -0.1863
C85        C    0.4879923939    0.4927162293    0.0636303885         -0.2976
C86        C    0.4640012859    0.5167629801    0.0276389311         -0.2975
C87        C    0.5519894834    0.4577468424    0.0745925668         -0.1124
C88        C    0.5932469085    0.4485801704    0.0500768185         -0.3265
C89        C    0.6152947392    0.4218796581    0.0847543904         -0.2972
C90        C    0.5958779989    0.4041237340    0.1438654166         -0.2195
C91        C    0.5550808065    0.4139160397    0.1686753320         -0.3071
C92        C    0.5332458156    0.4408983783    0.1340786692         -0.3144
H94        H    0.4600862570    0.5998440354    0.7884082251         -0.0895
H95        H    0.5052732119    0.5629423887    0.8532552816         -0.1175
H96        H    0.4008671452    0.5509967165    0.9988809214         -0.1181
H97        H    0.3553592868    0.5874784353    0.9338460705         -0.0906
H98        H    0.5357130474    0.5335528823    0.8986675558         -0.1215
H99        H    0.5774777298    0.4916531760    0.9613135197         -0.1215
H100       H    0.4751333899    0.4816928348    0.1082232499         -0.1208
H101       H    0.4334010135    0.5236269972    0.0455512067         -0.1208
H102       H    0.6073611821    0.4614336544    0.0061989032         -0.1175
H103       H    0.6457459623    0.4149934953    0.0665756683         -0.0895
H105       H    0.5409894618    0.4011298333    0.2125656462         -0.0907
H106       H    0.5030230651    0.4481001699    0.1523380443         -0.1182
C45        C    0.4040557539    0.5959425011    0.6438654179         -0.2197
C46        C    0.4118932146    0.5535069262    0.6673726930         -0.2969
C47        C    0.4330352980    0.5274624639    0.6301933864         -0.3267
C48        C    0.4462308107    0.5438119794    0.5694571600         -0.1122
C49        C    0.4374571368    0.5855673158    0.5455986491         -0.3145
C50        C    0.4165156309    0.6117696798    0.5828756569          -0.307
C51        C    0.4687843692    0.5187492687    0.5328784471         -0.1863
C52        C    0.4787791569    0.4780237237    0.5573954421         -0.2974
C53        C    0.5027591654    0.4539937494    0.5214181285         -0.2974
C54        C    0.5167944118    0.4707881566    0.4609333442         -0.1863
C55        C    0.5060063310    0.5108911427    0.4361137997         -0.2976
C56        C    0.4819587506    0.5348809165    0.4721060594         -0.2975
C57        C    0.5422307713    0.4479009239    0.4255460119         -0.1124
C58        C    0.5526498077    0.4076202848    0.4504996868         -0.3265
C59        C    0.5793625464    0.3856263670    0.4157558695         -0.2972
C60        C    0.5958779990    0.4041237335    0.3561345808         -0.2195
C61        C    0.5848309555    0.4439320417    0.3309021928         -0.3071
C62        C    0.5578363336    0.4657086419    0.3655721262         -0.3144
H64        H    0.4023229906    0.5415645849    0.7124120537         -0.0895
H65        H    0.4392056958    0.4962844796    0.6476829228         -0.1175
H66        H    0.4468067551    0.5973468527    0.5004667035         -0.1181
H67        H    0.4103451850    0.6429556997    0.5653730912         -0.0906
H68        H    0.4685910458    0.4658310644    0.6022856227         -0.1215
H69        H    0.5104926931    0.4240695466    0.5396377133         -0.1215
H70        H    0.5161054566    0.5230310363    0.3911949167         -0.1208
H71        H    0.4741700955    0.5647604003    0.4538698430         -0.1208
H72        H    0.5407145960    0.3941914999    0.4947475231         -0.1175
H73        H    0.5871755843    0.3558997194    0.4342560696         -0.0895
H75        H    0.5966984990    0.4573366975    0.2866432440         -0.0907
H76        H    0.5497076023    0.4952018895    0.3469990007         -0.1182
loop_
_geom_bond_atom_site_label_1
_geom_bond_atom_site_label_2
_geom_bond_distance
_geom_bond_site_symmetry_2
_ccdc_geom_bond_type
O1         Al16 1.762       .   S
O1           C7 1.272       .   A
O2         Al17 1.762       .   S
O2           C8 1.272       .   A
O3         Al18 1.762       .   S
O3           C9 1.272       .   A
O4         Al18 1.762       .   S
O4           C7 1.272       .   A
O5         Al17 1.762       .   S
O5           C9 1.272       .   A
O6         Al16 1.762       .   S
O6           C8 1.272       .   A
C7         C135 1.540       .   S
C8         C165 1.540       .   S
C9          C45 1.540       .   S
O10        Al16 1.762       .   S
O10         C20 1.272       .   A
O11        Al17 1.762       .   S
O11         C21 1.272       .   A
O12        Al18 1.762       .   S
O12         C22 1.272       .   A
O13        Al18 1.762       .   S
O13         C20 1.272       .   A
O14        Al17 1.762       .   S
O14         C22 1.272       .   A
O15        Al16 1.762       .   S
O15         C21 1.272       .   A
Al16        O19 1.735       .   S
Al17        O19 1.735       .   S
Al18        O19 1.735       .   S
C20        C120 1.540       .   S
C21        C195 1.540       .   S
C22         C75 1.540       .   S
O23        Al38 1.762       .   S
O23         C29 1.272       .   A
O24        Al39 1.762       .   S
O24         C30 1.272       .   A
O25        Al40 1.762       .   S
O25         C31 1.272       .   A
O26        Al40 1.762       .   S
O26         C29 1.272       .   A
O27        Al39 1.762       .   S
O27         C31 1.272       .   A
O28        Al38 1.762       .   S
O28         C30 1.272       .   A
C29        C105 1.540   1_544   S
C30        C210 1.540   1_654   S
C31         C90 1.540   1_554   S
O32        Al38 1.762       .   S
O32         C42 1.272       .   A
O33        Al39 1.762       .   S
O33         C43 1.272       .   A
O34        Al40 1.762       .   S
O34         C44 1.272       .   A
O35        Al40 1.762       .   S
O35         C42 1.272       .   A
O36        Al39 1.762       .   S
O36         C44 1.272       .   A
O37        Al38 1.762       .   S
O37         C43 1.272       .   A
Al38        O41 1.735       .   S
Al39        O41 1.735       .   S
Al40        O41 1.735       .   S
C42        C150 1.540   1_545   S
C43        C180 1.540   1_655   S
C44         C60 1.540       .   S
C196       C195 1.539       .   A
C195       C200 1.540       .   A
H214       C196 1.140       .   S
C197       C196 1.540       .   A
H215       C197 1.140       .   S
C197       C198 1.540       .   A
C201       C198 1.539       .   S
C199       C198 1.540       .   A
H216       C199 1.141       .   S
C200       C199 1.541       .   A
H217       C200 1.141       .   S
C206       C201 1.539       .   A
C202       C201 1.540       .   A
H218       C202 1.140       .   S
C202       C203 1.539       .   A
H219       C203 1.140       .   S
C204       C203 1.540       .   A
C207       C204 1.539       .   S
C205       C204 1.540       .   A
H220       C205 1.140       .   S
C206       C205 1.540       .   A
H221       C206 1.140       .   S
C212       C207 1.540       .   A
C207       C208 1.539       .   A
H222       C208 1.140       .   S
C209       C208 1.540       .   A
H223       C209 1.139       .   S
C210       C209 1.540       .   A
C211       C210 1.541       .   A
C212       C211 1.541       .   A
C211       H225 1.139       .   S
C212       H226 1.139       .   S
C166       C165 1.539       .   A
C165       C170 1.540       .   A
H184       C166 1.140       .   S
C167       C166 1.540       .   A
H185       C167 1.140       .   S
C167       C168 1.540       .   A
C171       C168 1.539       .   S
C169       C168 1.540       .   A
H186       C169 1.141       .   S
C170       C169 1.541       .   A
H187       C170 1.141       .   S
C176       C171 1.539       .   A
C172       C171 1.540       .   A
H188       C172 1.140       .   S
C172       C173 1.539       .   A
H189       C173 1.140       .   S
C174       C173 1.540       .   A
C177       C174 1.539       .   S
C175       C174 1.540       .   A
H190       C175 1.140       .   S
C176       C175 1.540       .   A
H191       C176 1.140       .   S
C182       C177 1.540       .   A
C177       C178 1.539       .   A
H192       C178 1.140       .   S
C179       C178 1.540       .   A
H193       C179 1.139       .   S
C180       C179 1.540       .   A
C181       C180 1.541       .   A
C182       C181 1.541       .   A
C181       H195 1.139       .   S
C182       H196 1.139       .   S
C136       C135 1.539       .   A
C135       C140 1.540       .   A
H154       C136 1.140       .   S
C137       C136 1.540       .   A
H155       C137 1.140       .   S
C137       C138 1.540       .   A
C141       C138 1.539       .   S
C139       C138 1.540       .   A
H156       C139 1.141       .   S
C140       C139 1.541       .   A
H157       C140 1.141       .   S
C146       C141 1.539       .   A
C142       C141 1.540       .   A
H158       C142 1.140       .   S
C142       C143 1.539       .   A
H159       C143 1.140       .   S
C144       C143 1.540       .   A
C147       C144 1.539       .   S
C145       C144 1.540       .   A
H160       C145 1.140       .   S
C146       C145 1.540       .   A
H161       C146 1.140       .   S
C152       C147 1.540       .   A
C147       C148 1.539       .   A
H162       C148 1.140       .   S
C149       C148 1.540       .   A
H163       C149 1.139       .   S
C150       C149 1.540       .   A
C151       C150 1.541       .   A
C152       C151 1.541       .   A
C151       H165 1.139       .   S
C152       H166 1.139       .   S
C106       C105 1.539       .   A
C105       C110 1.540       .   A
H124       C106 1.140       .   S
C107       C106 1.540       .   A
H125       C107 1.140       .   S
C107       C108 1.540       .   A
C111       C108 1.539       .   S
C109       C108 1.540       .   A
H126       C109 1.141       .   S
C110       C109 1.541       .   A
H127       C110 1.141       .   S
C116       C111 1.539       .   A
C112       C111 1.540       .   A
H128       C112 1.140       .   S
C112       C113 1.539       .   A
H129       C113 1.140       .   S
C114       C113 1.540       .   A
C117       C114 1.539       .   S
C115       C114 1.540       .   A
H130       C115 1.140       .   S
C116       C115 1.540       .   A
H131       C116 1.140       .   S
C122       C117 1.540       .   A
C117       C118 1.539       .   A
H132       C118 1.140       .   S
C119       C118 1.540       .   A
H133       C119 1.139       .   S
C120       C119 1.540       .   A
C121       C120 1.541       .   A
C122       C121 1.541       .   A
C121       H135 1.139       .   S
C122       H136 1.139       .   S
C76         C75 1.539       .   A
C75         C80 1.540       .   A
H94         C76 1.140       .   S
C77         C76 1.540       .   A
H95         C77 1.140       .   S
C77         C78 1.540       .   A
C81         C78 1.539       .   S
C79         C78 1.540       .   A
H96         C79 1.141       .   S
C80         C79 1.541       .   A
H97         C80 1.141       .   S
C86         C81 1.539       .   A
C82         C81 1.540       .   A
H98         C82 1.140       .   S
C82         C83 1.539       .   A
H99         C83 1.140       .   S
C84         C83 1.540       .   A
C87         C84 1.539       .   S
C85         C84 1.540       .   A
H100        C85 1.140       .   S
C86         C85 1.540       .   A
H101        C86 1.140       .   S
C92         C87 1.540       .   A
C87         C88 1.539       .   A
H102        C88 1.140       .   S
C89         C88 1.540       .   A
H103        C89 1.139       .   S
C90         C89 1.540       .   A
C91         C90 1.541       .   A
C92         C91 1.541       .   A
C91        H105 1.139       .   S
C92        H106 1.139       .   S
C46         C45 1.539       .   A
C45         C50 1.540       .   A
H64         C46 1.140       .   S
C47         C46 1.540       .   A
H65         C47 1.140       .   S
C47         C48 1.540       .   A
C51         C48 1.539       .   S
C49         C48 1.540       .   A
H66         C49 1.141       .   S
C50         C49 1.541       .   A
H67         C50 1.141       .   S
C56         C51 1.539       .   A
C52         C51 1.540       .   A
H68         C52 1.140       .   S
C52         C53 1.539       .   A
H69         C53 1.140       .   S
C54         C53 1.540       .   A
C57         C54 1.539       .   S
C55         C54 1.540       .   A
H70         C55 1.140       .   S
C56         C55 1.540       .   A
H71         C56 1.140       .   S
C62         C57 1.540       .   A
C57         C58 1.539       .   A
H72         C58 1.140       .   S
C59         C58 1.540       .   A
H73         C59 1.139       .   S
C60         C59 1.540       .   A
C61         C60 1.541       .   A
C62         C61 1.541       .   A
C61         H75 1.139       .   S
C62         H76 1.139       .   S
