data_acs_v1-6c_Al_1_1-1B_4H_Ch
_audit_creation_date              2021-04-23
_audit_creation_method            'tobacco_3.0'
_symmetry_space_group_name_H-M    'P1'
_symmetry_Int_Tables_number       1
_symmetry_cell_setting            triclinic
loop_
_symmetry_equiv_pos_as_xyz
  x,y,z
_cell_length_a                    17.356503013910963
_cell_length_b                    17.35650285045262
_cell_length_c                    13.76381855359373
_cell_angle_alpha                 89.9999998740298
_cell_angle_beta                  89.99999901305824
_cell_angle_gamma                 120.00086130404324
loop_
_atom_site_label
_atom_site_type_symbol
_atom_site_fract_x
_atom_site_fract_y
_atom_site_fract_z
_atom_site_charge
O1         O    0.1974326413    0.6628476973    0.8410866425          0.5398
O2         O    0.4653120833    0.8025641944    0.8410866395          0.5398
O3         O    0.3371486200    0.5346947596    0.8410866412          0.5398
O4         O    0.1974299680    0.5346862494    0.8410866427          0.5398
O5         O    0.4653107436    0.6628548880    0.8410866397          0.5398
O6         O    0.3371526330    0.8025655140    0.8410866408          0.5398
C7         C    0.1688769539    0.5844898909    0.8733160710          0.5398
C8         C    0.4155101071    0.8311192047    0.8733160680          0.5398
C9         C    0.4155129353    0.5844909022    0.8733160684          0.5398
O10        O    0.1974326431    0.6628476984    0.6589133604          0.5398
O11        O    0.4653120851    0.8025641955    0.6589133574          0.5398
O12        O    0.3371486219    0.5346947607    0.6589133591          0.5398
O13        O    0.1974299698    0.5346862504    0.6589133606          0.5398
O14        O    0.4653107454    0.6628548891    0.6589133576          0.5398
O15        O    0.3371526348    0.8025655151    0.6589133587          0.5398
Al16      Al    0.2756075678    0.7244028112    0.7500072660             1.0
Al17      Al    0.4487034712    0.7244045020    0.7500072641             1.0
Al18      Al    0.2756004843    0.5513042099    0.7500072662             1.0
O19        O    0.3333060587    0.6667016234    0.7500072654          0.5398
C20        C    0.1688769564    0.5844898923    0.6266839327          0.5398
C21        C    0.4155101096    0.8311192062    0.6266839298          0.5398
C22        C    0.4155129377    0.5844909037    0.6266839301          0.5398
O23        O    0.8025016727    0.3372179695    0.3410866525          0.5398
O24        O    0.5346222306    0.1975014724    0.3410866555          0.5398
O25        O    0.6627856939    0.4653709072    0.3410866538          0.5398
O26        O    0.8025043459    0.4653794175    0.3410866524          0.5398
O27        O    0.5346235704    0.3372107788    0.3410866554          0.5398
O28        O    0.6627816810    0.1975001529    0.3410866542          0.5398
C29        C    0.8310573594    0.4155757756    0.3733160802          0.5398
C30        C    0.5844242062    0.1689464618    0.3733160831          0.5398
C31        C    0.5844213780    0.4155747642    0.3733160828          0.5398
O32        O    0.8025016745    0.3372179706    0.1589133704          0.5398
O33        O    0.5346222324    0.1975014735    0.1589133735          0.5398
O34        O    0.6627856957    0.4653709083    0.1589133717          0.5398
O35        O    0.8025043477    0.4653794186    0.1589133703          0.5398
O36        O    0.5346235722    0.3372107799    0.1589133733          0.5398
O37        O    0.6627816828    0.1975001539    0.1589133721          0.5398
Al38      Al    0.7243267480    0.2756628567    0.2500072778             1.0
Al39      Al    0.5512308446    0.2756611659    0.2500072796             1.0
Al40      Al    0.7243338315    0.4487614580    0.2500072776             1.0
O41        O    0.6666282571    0.3333640445    0.2500072783          0.5398
C42        C    0.8310573619    0.4155757770    0.1266839420          0.5398
C43        C    0.5844242086    0.1689464632    0.1266839449          0.5398
C44        C    0.5844213805    0.4155747657    0.1266839446          0.5398
C95        C    0.0754863385    0.4802534817    0.0212679662         -0.5907
C96        C    0.0844235138    0.5422620914    0.9366569452         -0.3692
C97        C    0.0089043332    0.5620414437    0.9153889855         -0.5907
C98        C    0.9244479773    0.5198121863    0.9787320468         -0.5907
C99        C    0.9155108019    0.4578035765    0.0633430677         -0.3692
C100       C    0.9910299825    0.4380242242    0.0846110274         -0.5907
H101       H    0.1313901475    0.4656116235    0.0370117805         -0.3294
H102       H    0.0155172087    0.6079406222    0.8527595355         -0.3294
H103       H    0.8685441683    0.5344540445    0.9629882324         -0.3294
H104       H    0.9844171071    0.3921250457    0.1472404774         -0.3294
C85        C    0.9095416583    0.4764593392    0.5449709916         -0.5907
C86        C    0.9155108012    0.4578035760    0.4366569503         -0.3692
C87        C    0.0059363008    0.4813770707    0.3916859651         -0.5907
C88        C    0.0903926575    0.5236063287    0.4550290213         -0.5907
C89        C    0.0844235145    0.5422620919    0.5633430627         -0.3692
C90        C    0.9939980149    0.5186885972    0.6083140478         -0.5907
H91        H    0.8426033015    0.4590088302    0.5782612015         -0.3294
H92        H    0.0103575009    0.4675688872    0.3115108734         -0.3294
H93        H    0.1573310143    0.5410568377    0.4217388115         -0.3294
H94        H    0.9895768148    0.5324967808    0.6884891395         -0.3294
C75        C    0.4433957452    0.9080529913    0.4525558863         -0.5907
C76        C    0.4577385543    0.9155758612    0.5633420873         -0.3692
C77        C    0.5143099670    0.0075557039    0.6107862075         -0.5907
C78        C    0.5565385706    0.0920126766    0.5474441266         -0.5907
C79        C    0.5421957615    0.0844898067    0.4366579256         -0.3692
C80        C    0.4856243487    0.9925099640    0.3892138055         -0.5907
H81        H    0.4015182059    0.8399640168    0.4174349142         -0.3294
H82        H    0.5249282537    0.0131270163    0.6927912612         -0.3294
H83        H    0.5984161099    0.1601016511    0.5825650987         -0.3294
H84        H    0.4750060621    0.9869386516    0.3072087518         -0.3294
C65        C    0.5326153331    0.0038407664    0.8951263337         -0.5907
C66        C    0.4577385554    0.9155758652    0.9366579216         -0.3692
C67        C    0.4250903802    0.9117679328    0.0415315943         -0.5907
C68        C    0.4673189826    0.9962249016    0.1048736792         -0.5907
C69        C    0.5421957603    0.0844898027    0.0633420913         -0.3692
C70        C    0.5748439356    0.0882977352    0.9584684186         -0.5907
H71        H    0.5567834629    0.0066596254    0.8174925760         -0.3294
H72        H    0.3696658222    0.8464344461    0.0722764470         -0.3294
H73        H    0.4431508529    0.9934060425    0.1825074369         -0.3294
H74        H    0.6302684936    0.1536312218    0.9277235659         -0.3294
C55        C    0.5525118144    0.6002622273    0.9770105227         -0.5907
C56        C    0.4577401157    0.5422617989    0.9366581411         -0.3692
C57        C    0.4051954592    0.4420324056    0.9596476249         -0.5907
C58        C    0.4474225013    0.3998034407    0.0229894903         -0.5907
C59        C    0.5421942000    0.4578038690    0.0633418718         -0.3692
C60        C    0.5947388566    0.5580332623    0.0403523880         -0.5903
H61        H    0.5914085082    0.6744580119    0.9599923333         -0.3294
H62        H    0.3350441217    0.3990975228    0.9297796631         -0.3294
H63        H    0.4085258075    0.3256076560    0.0400076796         -0.3294
H64        H    0.6648901940    0.6009681452    0.0702203498         -0.3294
C45        C    0.4063596840    0.4837759719    0.4758180261         -0.5907
C46        C    0.4577401149    0.5422618017    0.5633418677         -0.3692
C47        C    0.5513475888    0.5585186638    0.5875238480         -0.5907
C48        C    0.5935746318    0.5162896960    0.5241819868         -0.5907
C49        C    0.5421942009    0.4578038662    0.4366581453         -0.3692
C50        C    0.4485867270    0.4415470041    0.4124761649         -0.5907
H51        H    0.3370658397    0.4717416714    0.4579170796         -0.3294
H52        H    0.5893821636    0.6018101817    0.6523094498         -0.3294
H53        H    0.6628684761    0.5283239966    0.5420829334         -0.3294
H54        H    0.4105521522    0.3982554862    0.3476905631         -0.3294
loop_
_geom_bond_atom_site_label_1
_geom_bond_atom_site_label_2
_geom_bond_distance
_geom_bond_site_symmetry_2
_ccdc_geom_bond_type
O1         Al16 1.762       .   S
O1           C7 1.272       .   A
O2         Al17 1.762       .   S
O2           C8 1.272       .   A
O3         Al18 1.762       .   S
O3           C9 1.272       .   A
O4         Al18 1.762       .   S
O4           C7 1.272       .   A
O5         Al17 1.762       .   S
O5           C9 1.272       .   A
O6         Al16 1.762       .   S
O6           C8 1.272       .   A
C7          C96 1.540       .   S
C8          C66 1.540       .   S
C9          C56 1.540       .   S
O10        Al16 1.762       .   S
O10         C20 1.272       .   A
O11        Al17 1.762       .   S
O11         C21 1.272       .   A
O12        Al18 1.762       .   S
O12         C22 1.272       .   A
O13        Al18 1.762       .   S
O13         C20 1.272       .   A
O14        Al17 1.762       .   S
O14         C22 1.272       .   A
O15        Al16 1.762       .   S
O15         C21 1.272       .   A
Al16        O19 1.735       .   S
Al17        O19 1.735       .   S
Al18        O19 1.735       .   S
C20         C89 1.540       .   S
C21         C76 1.540       .   S
C22         C46 1.540       .   S
O23        Al38 1.762       .   S
O23         C29 1.272       .   A
O24        Al39 1.762       .   S
O24         C30 1.272       .   A
O25        Al40 1.762       .   S
O25         C31 1.272       .   A
O26        Al40 1.762       .   S
O26         C29 1.272       .   A
O27        Al39 1.762       .   S
O27         C31 1.272       .   A
O28        Al38 1.762       .   S
O28         C30 1.272       .   A
C29         C86 1.540   1_655   S
C30         C79 1.540   1_545   S
C31         C49 1.540       .   S
O32        Al38 1.762       .   S
O32         C42 1.272       .   A
O33        Al39 1.762       .   S
O33         C43 1.272       .   A
O34        Al40 1.762       .   S
O34         C44 1.272       .   A
O35        Al40 1.762       .   S
O35         C42 1.272       .   A
O36        Al39 1.762       .   S
O36         C44 1.272       .   A
O37        Al38 1.762       .   S
O37         C43 1.272       .   A
Al38        O41 1.735       .   S
Al39        O41 1.735       .   S
Al40        O41 1.735       .   S
C42         C99 1.540   1_654   S
C43         C69 1.540   1_544   S
C44         C59 1.540   1_554   S
C95         C96 1.540       .   A
C95        C100 1.540       .   A
C95        H101 1.140       .   S
C96         C97 1.540       .   A
C97         C98 1.540       .   A
C97        H102 1.140       .   S
C98         C99 1.540       .   A
C98        H103 1.140       .   S
C99        C100 1.540       .   A
C100       H104 1.140       .   S
C85         C86 1.540       .   A
C85         C90 1.540       .   A
C85         H91 1.140       .   S
C86         C87 1.540       .   A
C87         C88 1.540       .   A
C87         H92 1.140       .   S
C88         C89 1.540       .   A
C88         H93 1.140       .   S
C89         C90 1.540       .   A
C90         H94 1.140       .   S
C75         C76 1.540       .   A
C75         C80 1.540       .   A
C75         H81 1.140       .   S
C76         C77 1.540       .   A
C77         C78 1.540       .   A
C77         H82 1.140       .   S
C78         C79 1.540       .   A
C78         H83 1.140       .   S
C79         C80 1.540       .   A
C80         H84 1.140       .   S
C65         C66 1.540       .   A
C65         C70 1.540       .   A
C65         H71 1.140       .   S
C66         C67 1.540       .   A
C67         C68 1.540       .   A
C67         H72 1.140       .   S
C68         C69 1.540       .   A
C68         H73 1.140       .   S
C69         C70 1.540       .   A
C70         H74 1.140       .   S
C55         C56 1.540       .   A
C55         C60 1.540       .   A
C55         H61 1.140       .   S
C56         C57 1.540       .   A
C57         C58 1.540       .   A
C57         H62 1.140       .   S
C58         C59 1.540       .   A
C58         H63 1.140       .   S
C59         C60 1.540       .   A
C60         H64 1.140       .   S
C45         C46 1.540       .   A
C45         C50 1.540       .   A
C45         H51 1.140       .   S
C46         C47 1.540       .   A
C47         C48 1.540       .   A
C47         H52 1.140       .   S
C48         C49 1.540       .   A
C48         H53 1.140       .   S
C49         C50 1.540       .   A
C50         H54 1.140       .   S
