data_acs_v1-6c_Al_1_1-3B_4H_Ch
_audit_creation_date              2021-04-20
_audit_creation_method            'tobacco_3.0'
_symmetry_space_group_name_H-M    'P1'
_symmetry_Int_Tables_number       1
_symmetry_cell_setting            triclinic
loop_
_symmetry_equiv_pos_as_xyz
  x,y,z
_cell_length_a                    30.524850433529984
_cell_length_b                    30.524850427252684
_cell_length_c                    24.20642026814414
_cell_angle_alpha                 90.00000042091969
_cell_angle_beta                  89.99999720730894
_cell_angle_gamma                 120.00070816223528
loop_
_atom_site_label
_atom_site_type_symbol
_atom_site_fract_x
_atom_site_fract_y
_atom_site_fract_z
_atom_site_charge
O1         O    0.2560455568    0.6645096920    0.8017920470          0.7946
O2         O    0.4083622085    0.7439525299    0.8017920428          0.7946
O3         O    0.3354884482    0.5916415596    0.8017920443          0.7946
O4         O    0.2560441494    0.5916368430    0.8017920466          0.7946
O5         O    0.4083615696    0.6645135461    0.8017920424          0.7946
O6         O    0.3354904944    0.7439533924    0.8017920450          0.7946
C7         C    0.2398088057    0.6199553155    0.8201177639          0.7946
C8         C    0.3800446821    0.7601890079    0.8201177604          0.7946
C9         C    0.3800465070    0.6199556746    0.8201177598          0.7946
O10        O    0.2560455593    0.6645096930    0.6982079576          0.7946
O11        O    0.4083622111    0.7439525309    0.6982079534          0.7946
O12        O    0.3354884507    0.5916415605    0.6982079549          0.7946
O13        O    0.2560441520    0.5916368439    0.6982079573          0.7946
O14        O    0.4083615721    0.6645135470    0.6982079531          0.7946
O15        O    0.3354904970    0.7439533934    0.6982079556          0.7946
Al16      Al    0.3004959195    0.6995099814    0.7500041323             1.0
Al17      Al    0.3989185887    0.6995107912    0.7500041293             1.0
Al18      Al    0.3004920440    0.6010857794    0.7500041318             1.0
O19        O    0.3333034450    0.6667009231    0.7500041311          0.7946
C20        C    0.2398088092    0.6199553168    0.6798822412          0.7946
C21        C    0.3800446855    0.7601890092    0.6798822377          0.7946
C22        C    0.3800465105    0.6199556759    0.6798822370          0.7946
O23        O    0.7438881958    0.3355565479    0.3017920432          0.7946
O24        O    0.5915715441    0.2561137100    0.3017920474          0.7946
O25        O    0.6644453044    0.4084246804    0.3017920459          0.7946
O26        O    0.7438896031    0.4084293970    0.3017920435          0.7946
O27        O    0.5915721830    0.3355526939    0.3017920478          0.7946
O28        O    0.6644432581    0.2561128475    0.3017920452          0.7946
C29        C    0.7601249460    0.3801109241    0.3201177596          0.7946
C30        C    0.6198890696    0.2398772317    0.3201177632          0.7946
C31        C    0.6198872447    0.3801105650    0.3201177638          0.7946
O32        O    0.7438881984    0.3355565489    0.1982079539          0.7946
O33        O    0.5915715466    0.2561137110    0.1982079580          0.7946
O34        O    0.6644453069    0.4084246813    0.1982079566          0.7946
O35        O    0.7438896057    0.4084293979    0.1982079542          0.7946
O36        O    0.5915721855    0.3355526948    0.1982079584          0.7946
O37        O    0.6644432607    0.2561128485    0.1982079559          0.7946
Al38      Al    0.6994378356    0.3005562595    0.2500041308             1.0
Al39      Al    0.6010151665    0.3005554497    0.2500041338             1.0
Al40      Al    0.6994417111    0.3989804615    0.2500041313             1.0
O41        O    0.6666303102    0.3333653178    0.2500041320          0.7946
C42        C    0.7601249494    0.3801109254    0.1798822369          0.7946
C43        C    0.6198890730    0.2398772330    0.1798822404          0.7946
C44        C    0.6198872481    0.3801105663    0.1798822411          0.7946
C195       C    0.8081452254    0.4041213098    0.1438668717         -0.2197
C196       C    0.8436908425    0.3819609079    0.1439545228         -0.2969
C197       C    0.8899904642    0.4041147429    0.1053641223         -0.3267
C198       C    0.9006548755    0.4483737352    0.0666013175         -0.1122
C199       C    0.8645554119    0.4699079321    0.0656887914         -0.3145
C200       C    0.8183634652    0.4478812775    0.1044802472          -0.307
C201       C    0.9478116305    0.4714204013    0.0292911223         -0.1863
C202       C    0.9845119790    0.4506527242    0.0315133705         -0.2974
C203       C    0.0325075578    0.4746188722    0.9955123332         -0.2974
C204       C    0.0437902503    0.5194129548    0.9573562513         -0.1863
C205       C    0.0066530782    0.5396361408    0.9544083494         -0.2976
C206       C    0.9586067553    0.5156076822    0.9903871684         -0.2975
C207       C    0.0925839189    0.5443612581    0.9227155585         -0.1124
C208       C    0.1294089697    0.5237862091    0.9256056201         -0.3265
C209       C    0.1789623982    0.5494933503    0.8922074140         -0.2972
C210       C    0.1917885297    0.5959449311    0.8561331292         -0.2195
C211       C    0.1546079843    0.6161159228    0.8526466278         -0.3071
C212       C    0.1048927882    0.5901997778    0.8858163907         -0.3144
H214       H    0.8359013615    0.3493337761    0.1728353614         -0.0895
H215       H    0.9165497513    0.3879706236    0.1056967641         -0.1175
H216       H    0.8722172514    0.5023915551    0.0366043168         -0.1181
H217       H    0.7918000632    0.4640347690    0.1041408873         -0.0906
H218       H    0.9762102004    0.4176411486    0.0600149052         -0.1215
H219       H    0.0598935112    0.4594898898    0.9973976006         -0.1215
H220       H    0.0148934595    0.5725900560    0.9258380785         -0.1208
H221       H    0.9311909489    0.5306961014    0.9884543510         -0.1208
H222       H    0.1200491242    0.4896112565    0.9525948934         -0.1175
H223       H    0.2062700137    0.5343409641    0.8944364352         -0.0895
H225       H    0.1639088559    0.6502473091    0.8256217000         -0.0907
H226       H    0.0773959757    0.6051166909    0.8833444582         -0.1182
C165       C    0.1917885198    0.5959449258    0.6438668656         -0.2197
C166       C    0.1398313460    0.5606638942    0.6700507572         -0.2969
C167       C    0.0915657370    0.5392041393    0.6345865949         -0.3267
C168       C    0.0952880190    0.5531402200    0.5729474109         -0.1122
C169       C    0.1471492484    0.5892368311    0.5469719150         -0.3145
C170       C    0.1954509685    0.6105196079    0.5824084897          -0.307
C171       C    0.0471232429    0.5304071021    0.5372401348         -0.1863
C172       C    0.9955643961    0.4932418137    0.5630890139         -0.2974
C173       C    0.9475469397    0.4692417898    0.5271227703         -0.2974
C174       C    0.9511633590    0.4823944575    0.4652754814         -0.1863
C175       C    0.0025883229    0.5202319465    0.4396084620         -0.2976
C176       C    0.0506121475    0.5442810434    0.4756230516         -0.2975
C177       C    0.9033942702    0.4571485183    0.4290055497         -0.1124
C178       C    0.8520556726    0.4195797805    0.4549737135         -0.3265
C179       C    0.8043920790    0.3931505474    0.4185703737         -0.2972
C180       C    0.8081452353    0.4041213151    0.3561331352         -0.2195
C181       C    0.8593978903    0.4422447138    0.3302704872         -0.3071
C182       C    0.9070210175    0.4689030622    0.3667669674         -0.3144
H184       H    0.1371154907    0.5501811079    0.7156361953         -0.0895
H185       H    0.0531009510    0.5127685574    0.6538503224         -0.1175
H186       H    0.1498388632    0.5999140294    0.5014275375         -0.1181
H187       H    0.2339238288    0.6369632667    0.5631317484         -0.0906
H188       H    0.9930164073    0.4833575496    0.6088428496         -0.1215
H189       H    0.9093873167    0.4414480370    0.5461393351         -0.1215
H190       H    0.0051410099    0.5301974270    0.3938760506         -0.1208
H191       H    0.0887611732    0.5721193607    0.4566232589         -0.1208
H192       H    0.8493673278    0.4112278496    0.5011209703         -0.1175
H193       H    0.7664187694    0.3652641812    0.4377589932         -0.0895
H195       H    0.8621087517    0.4506618715    0.2841455488         -0.0907
H196       H    0.9449610820    0.4970471186    0.3476891544         -0.1182
C135       C    0.5958780910    0.1918553291    0.3561340207         -0.2197
C136       C    0.5390011960    0.1533391226    0.3513237628         -0.2969
C137       C    0.5157350552    0.1038897256    0.3849055080         -0.3267
C138       C    0.5494105074    0.0929375053    0.4232095350         -0.1122
C139       C    0.6065017692    0.1309813168    0.4272127780         -0.3145
C140       C    0.6297231553    0.1805530370    0.3937957122          -0.307
C141       C    0.5257469107    0.0441813067    0.4579763543         -0.1863
C142       C    0.4684187015    0.0069775288    0.4549546831         -0.2974
C143       C    0.4443944338    0.9589621007    0.4909241559         -0.2974
C144       C    0.4777503848    0.9482373886    0.5299664035         -0.1843
C145       C    0.5352187753    0.9849908920    0.5323030998         -0.2976
C146       C    0.5592483609    0.0329966315    0.4962597481         -0.2975
C147       C    0.4534526733    0.9010613824    0.5671794394         -0.1124
C148       C    0.3960288133    0.8643183744    0.5644209519         -0.3265
C149       C    0.3713306249    0.8178126823    0.6026655529         -0.2972
C150       C    0.4040556642    0.8082109118    0.6438659801         -0.2195
C151       C    0.4616280112    0.8446041383    0.6460994038         -0.3071
C152       C    0.4863641994    0.8909665215    0.6075981259         -0.3144
H154       H    0.5140410979    0.1615656487    0.3231387218         -0.0895
H155       H    0.4735393688    0.0755109918    0.3816804736         -0.1175
H156       H    0.6315145255    0.1226371666    0.4552114431         -0.1181
H157       H    0.6719324987    0.2089352780    0.3970264978         -0.0906
H158       H    0.4437501583    0.0151304460    0.4262172579         -0.1215
H159       H    0.4018864328    0.9315491046    0.4889967083         -0.1215
H160       H    0.5599167990    0.9768072315    0.5609627429         -0.1208
H161       H    0.6017626980    0.0603784680    0.4981377261         -0.1208
H162       H    0.3717858028    0.8716293786    0.5341745128         -0.1175
H163       H    0.3288212015    0.7906797372    0.6007151092         -0.0895
H165       H    0.4859036538    0.8372904598    0.6762834666         -0.0907
H166       H    0.5289211101    0.9179530671    0.6092578288         -0.1182
C105       C    0.4040556640    0.8082109160    0.8561340224         -0.2197
C106       C    0.3704724593    0.8261767492    0.8840004964         -0.2969
C107       C    0.3942734357    0.8724100691    0.9226963742         -0.3267
C108       C    0.4516671400    0.9005964118    0.9335970971         -0.1122
C109       C    0.4851526600    0.8820439952    0.9066075709         -0.3145
C110       C    0.4613587706    0.8359234693    0.8677024942          -0.307
C111       C    0.4755414226    0.9477078428    0.9709793861         -0.1863
C112       C    0.4420722428    0.9668961751    0.9966034627         -0.2974
C113       C    0.4660400129    0.0148799520    0.0326232632         -0.2974
C114       C    0.5235126162    0.0436837423    0.0429185747         -0.1863
C115       C    0.5568861269    0.0240194369    0.0180824191         -0.2976
C116       C    0.5328817218    0.9759756341    0.9820995972         -0.2975
C117       C    0.5476277941    0.0925294276    0.0774765236         -0.1124
C118       C    0.5140267643    0.1118301468    0.1024523602         -0.3265
C119       C    0.5381284212    0.1614327981    0.1357722411         -0.2972
C120       C    0.5958780911    0.1918553249    0.1438659785         -0.2195
C121       C    0.6294428543    0.1721827814    0.1195125597         -0.3071
C122       C    0.6052812274    0.1223977201    0.0864539512         -0.3144
H124       H    0.3280093034    0.8054269152    0.8757282508         -0.0895
H125       H    0.3694806617    0.8859714523    0.9430320706         -0.1175
H126       H    0.5275998808    0.9026600656    0.9150931917         -0.1181
H127       H    0.4861651021    0.8223631792    0.8473652344         -0.0906
H128       H    0.3995500562    0.9456473017    0.9886894485         -0.1215
H129       H    0.4413365358    0.0293214764    0.0513212725         -0.1215
H130       H    0.5993995697    0.0452059496    0.0260667031         -0.1208
H131       H    0.5575744364    0.9615001222    0.9634557135         -0.1208
H132       H    0.4713237997    0.0894681300    0.0961382176         -0.1175
H133       H    0.5132800583    0.1757786603    0.1541540409         -0.0895
H135       H    0.6721362990    0.1944869586    0.1258605542         -0.0907
H136       H    0.6300580815    0.1078399815    0.0683511312         -0.1182
C75        C    0.4040574990    0.5959442454    0.8561345851         -0.2197
C76        C    0.4526001127    0.6297408408    0.8891222319         -0.2969
C77        C    0.4747606908    0.6056042045    0.9277157092         -0.3267
C78        C    0.4482803161    0.5476495477    0.9333861329         -0.1122
C79        C    0.3991586453    0.5138415976    0.9012454177         -0.3145
C80        C    0.3771236322    0.5379956516    0.8624501294          -0.307
C81        C    0.4713774293    0.5236051913    0.9707198488         -0.1863
C82        C    0.5212435495    0.5575502312    0.0015405166         -0.2974
C83        C    0.5452556452    0.5335807312    0.0375629689         -0.2974
C84        C    0.5193837561    0.4756378831    0.0426610039         -0.1863
C85        C    0.4690576938    0.4416945855    0.0126055428         -0.2976
C86        C    0.4450157434    0.4656945218    0.9766204920         -0.2975
C87        C    0.5442560319    0.4516946124    0.0772660501         -0.1124
C88        C    0.5944129604    0.4858346468    0.1074648337         -0.3265
C89        C    0.6201737590    0.4620583089    0.1408880599         -0.2972
C90        C    0.5958762561    0.4041219955    0.1438654157         -0.2195
C91        C    0.5453227776    0.3699431048    0.1142665841         -0.3071
C92        C    0.5194110241    0.3937473281    0.0810989569         -0.3144
H94        H    0.4723149498    0.6726429474    0.8847273401         -0.0895
H95        H    0.5109232228    0.6305951632    0.9518524346         -0.1175
H96        H    0.3793046996    0.4709293149    0.9058460041         -0.1181
H97        H    0.3409494032    0.5129909126    0.8383102658         -0.0906
H98        H    0.5404719218    0.6004481484    0.9974772032         -0.1215
H99        H    0.5823659095    0.5586729499    0.0601155357         -0.1215
H100       H    0.4497679200    0.3987955622    0.0167358423         -0.1208
H101       H    0.4078765505    0.4406066492    0.9541209180         -0.1208
H102       H    0.6125429172    0.5287112996    0.1049441723         -0.1175
H103       H    0.6573472394    0.4873175643    0.1631373943         -0.0895
H105       H    0.5271395721    0.3270693279    0.1168183706         -0.0907
H106       H    0.4820658131    0.3685242862    0.0591223532         -0.1182
C45        C    0.5958762575    0.4041219903    0.3561345821         -0.2197
C46        C    0.6266989345    0.4603919993    0.3721042934         -0.2969
C47        C    0.6016113128    0.4850248320    0.4052541847         -0.3267
C48        C    0.5456480501    0.4533712547    0.4223185087         -0.1122
C49        C    0.5145027031    0.3973309929    0.4054145299         -0.3145
C50        C    0.5396772504    0.3726431413    0.3724605201          -0.307
C51        C    0.5211196325    0.4777275432    0.4568801569         -0.1863
C52        C    0.5528378806    0.5333800007    0.4749576043         -0.2974
C53        C    0.5288614971    0.5574115530    0.5109381738         -0.2974
C54        C    0.4731633210    0.5257084444    0.5288792367         -0.1863
C55        C    0.4411764236    0.4702985297    0.5100199401         -0.2976
C56        C    0.4651640388    0.4462870163    0.4739668928         -0.2975
C57        C    0.4497112863    0.5493060483    0.5662924096         -0.1124
C58        C    0.4817984582    0.6047974352    0.5847431233         -0.3265
C59        C    0.4589414357    0.6281714008    0.6234237442         -0.2972
C60        C    0.4040574976    0.5959442506    0.6438654187         -0.2195
C61        C    0.3717182520    0.5406102579    0.6247947272         -0.3071
C62        C    0.3945093199    0.5173291359    0.5858327967         -0.3144
H64        H    0.6681952303    0.4837588059    0.3596659545         -0.0895
H65        H    0.6245163677    0.5266073961    0.4174544425         -0.1175
H66        H    0.4729220306    0.3740178527    0.4176340222         -0.1181
H67        H    0.5167588507    0.3310477490    0.3602596155         -0.0906
H68        H    0.5941560356    0.5567122661    0.4618555872         -0.1215
H69        H    0.5524111059    0.5985303545    0.5246627521         -0.1215
H70        H    0.3998294454    0.4469768721    0.5230303599         -0.1208
H71        H    0.4416000081    0.4051880455    0.4601879262         -0.1208
H72        H    0.5225196363    0.6285269978    0.5698898057         -0.1175
H73        H    0.4827164530    0.6692017609    0.6371790750         -0.0895
H75        H    0.3309816159    0.5168750776    0.6395742736         -0.0907
H76        H    0.3706672914    0.4763952247    0.5717595940         -0.1182
loop_
_geom_bond_atom_site_label_1
_geom_bond_atom_site_label_2
_geom_bond_distance
_geom_bond_site_symmetry_2
_ccdc_geom_bond_type
O1         Al16 1.762       .   S
O1           C7 1.272       .   A
O2         Al17 1.762       .   S
O2           C8 1.272       .   A
O3         Al18 1.762       .   S
O3           C9 1.272       .   A
O4         Al18 1.762       .   S
O4           C7 1.272       .   A
O5         Al17 1.762       .   S
O5           C9 1.272       .   A
O6         Al16 1.762       .   S
O6           C8 1.272       .   A
C7         C210 1.540       .   S
C8         C105 1.540       .   S
C9          C75 1.540       .   S
O10        Al16 1.762       .   S
O10         C20 1.272       .   A
O11        Al17 1.762       .   S
O11         C21 1.272       .   A
O12        Al18 1.762       .   S
O12         C22 1.272       .   A
O13        Al18 1.762       .   S
O13         C20 1.272       .   A
O14        Al17 1.762       .   S
O14         C22 1.272       .   A
O15        Al16 1.762       .   S
O15         C21 1.272       .   A
Al16        O19 1.735       .   S
Al17        O19 1.735       .   S
Al18        O19 1.735       .   S
C20        C165 1.540       .   S
C21        C150 1.540       .   S
C22         C60 1.540       .   S
O23        Al38 1.762       .   S
O23         C29 1.272       .   A
O24        Al39 1.762       .   S
O24         C30 1.272       .   A
O25        Al40 1.762       .   S
O25         C31 1.272       .   A
O26        Al40 1.762       .   S
O26         C29 1.272       .   A
O27        Al39 1.762       .   S
O27         C31 1.272       .   A
O28        Al38 1.762       .   S
O28         C30 1.272       .   A
C29        C180 1.540   1_655   S
C30        C135 1.540   1_545   S
C31         C45 1.540       .   S
O32        Al38 1.762       .   S
O32         C42 1.272       .   A
O33        Al39 1.762       .   S
O33         C43 1.272       .   A
O34        Al40 1.762       .   S
O34         C44 1.272       .   A
O35        Al40 1.762       .   S
O35         C42 1.272       .   A
O36        Al39 1.762       .   S
O36         C44 1.272       .   A
O37        Al38 1.762       .   S
O37         C43 1.272       .   A
Al38        O41 1.735       .   S
Al39        O41 1.735       .   S
Al40        O41 1.735       .   S
C42        C195 1.540   1_654   S
C43        C120 1.540   1_544   S
C44         C90 1.540   1_554   S
C196       C195 1.539       .   A
C195       C200 1.540       .   A
H214       C196 1.140       .   S
C197       C196 1.540       .   A
H215       C197 1.140       .   S
C197       C198 1.540       .   A
C201       C198 1.539       .   S
C199       C198 1.540       .   A
H216       C199 1.141       .   S
C200       C199 1.541       .   A
H217       C200 1.141       .   S
C206       C201 1.539       .   A
C202       C201 1.540       .   A
H218       C202 1.140       .   S
C202       C203 1.539       .   A
H219       C203 1.140       .   S
C204       C203 1.540       .   A
C207       C204 1.539       .   S
C205       C204 1.540       .   A
H220       C205 1.140       .   S
C206       C205 1.540       .   A
H221       C206 1.140       .   S
C212       C207 1.540       .   A
C207       C208 1.539       .   A
H222       C208 1.140       .   S
C209       C208 1.540       .   A
H223       C209 1.139       .   S
C210       C209 1.540       .   A
C211       C210 1.541       .   A
C212       C211 1.541       .   A
C211       H225 1.139       .   S
C212       H226 1.139       .   S
C166       C165 1.539       .   A
C165       C170 1.540       .   A
H184       C166 1.140       .   S
C167       C166 1.540       .   A
H185       C167 1.140       .   S
C167       C168 1.540       .   A
C171       C168 1.539       .   S
C169       C168 1.540       .   A
H186       C169 1.141       .   S
C170       C169 1.541       .   A
H187       C170 1.141       .   S
C176       C171 1.539       .   A
C172       C171 1.540       .   A
H188       C172 1.140       .   S
C172       C173 1.539       .   A
H189       C173 1.140       .   S
C174       C173 1.540       .   A
C177       C174 1.539       .   S
C175       C174 1.540       .   A
H190       C175 1.140       .   S
C176       C175 1.540       .   A
H191       C176 1.140       .   S
C182       C177 1.540       .   A
C177       C178 1.539       .   A
H192       C178 1.140       .   S
C179       C178 1.540       .   A
H193       C179 1.139       .   S
C180       C179 1.540       .   A
C181       C180 1.541       .   A
C182       C181 1.541       .   A
C181       H195 1.139       .   S
C182       H196 1.139       .   S
C136       C135 1.539       .   A
C135       C140 1.540       .   A
H154       C136 1.140       .   S
C137       C136 1.540       .   A
H155       C137 1.140       .   S
C137       C138 1.540       .   A
C141       C138 1.539       .   S
C139       C138 1.540       .   A
H156       C139 1.141       .   S
C140       C139 1.541       .   A
H157       C140 1.141       .   S
C146       C141 1.539       .   A
C142       C141 1.540       .   A
H158       C142 1.140       .   S
C142       C143 1.539       .   A
H159       C143 1.140       .   S
C144       C143 1.540       .   A
C147       C144 1.539       .   S
C145       C144 1.540       .   A
H160       C145 1.140       .   S
C146       C145 1.540       .   A
H161       C146 1.140       .   S
C152       C147 1.540       .   A
C147       C148 1.539       .   A
H162       C148 1.140       .   S
C149       C148 1.540       .   A
H163       C149 1.139       .   S
C150       C149 1.540       .   A
C151       C150 1.541       .   A
C152       C151 1.541       .   A
C151       H165 1.139       .   S
C152       H166 1.139       .   S
C106       C105 1.539       .   A
C105       C110 1.540       .   A
H124       C106 1.140       .   S
C107       C106 1.540       .   A
H125       C107 1.140       .   S
C107       C108 1.540       .   A
C111       C108 1.539       .   S
C109       C108 1.540       .   A
H126       C109 1.141       .   S
C110       C109 1.541       .   A
H127       C110 1.141       .   S
C116       C111 1.539       .   A
C112       C111 1.540       .   A
H128       C112 1.140       .   S
C112       C113 1.539       .   A
H129       C113 1.140       .   S
C114       C113 1.540       .   A
C117       C114 1.539       .   S
C115       C114 1.540       .   A
H130       C115 1.140       .   S
C116       C115 1.540       .   A
H131       C116 1.140       .   S
C122       C117 1.540       .   A
C117       C118 1.539       .   A
H132       C118 1.140       .   S
C119       C118 1.540       .   A
H133       C119 1.139       .   S
C120       C119 1.540       .   A
C121       C120 1.541       .   A
C122       C121 1.541       .   A
C121       H135 1.139       .   S
C122       H136 1.139       .   S
C76         C75 1.539       .   A
C75         C80 1.540       .   A
H94         C76 1.140       .   S
C77         C76 1.540       .   A
H95         C77 1.140       .   S
C77         C78 1.540       .   A
C81         C78 1.539       .   S
C79         C78 1.540       .   A
H96         C79 1.141       .   S
C80         C79 1.541       .   A
H97         C80 1.141       .   S
C86         C81 1.539       .   A
C82         C81 1.540       .   A
H98         C82 1.140       .   S
C82         C83 1.539       .   A
H99         C83 1.140       .   S
C84         C83 1.540       .   A
C87         C84 1.539       .   S
C85         C84 1.540       .   A
H100        C85 1.140       .   S
C86         C85 1.540       .   A
H101        C86 1.140       .   S
C92         C87 1.540       .   A
C87         C88 1.539       .   A
H102        C88 1.140       .   S
C89         C88 1.540       .   A
H103        C89 1.139       .   S
C90         C89 1.540       .   A
C91         C90 1.541       .   A
C92         C91 1.541       .   A
C91        H105 1.139       .   S
C92        H106 1.139       .   S
C46         C45 1.539       .   A
C45         C50 1.540       .   A
H64         C46 1.140       .   S
C47         C46 1.540       .   A
H65         C47 1.140       .   S
C47         C48 1.540       .   A
C51         C48 1.539       .   S
C49         C48 1.540       .   A
H66         C49 1.141       .   S
C50         C49 1.541       .   A
H67         C50 1.141       .   S
C56         C51 1.539       .   A
C52         C51 1.540       .   A
H68         C52 1.140       .   S
C52         C53 1.539       .   A
H69         C53 1.140       .   S
C54         C53 1.540       .   A
C57         C54 1.539       .   S
C55         C54 1.540       .   A
H70         C55 1.140       .   S
C56         C55 1.540       .   A
H71         C56 1.140       .   S
C62         C57 1.540       .   A
C57         C58 1.539       .   A
H72         C58 1.140       .   S
C59         C58 1.540       .   A
H73         C59 1.139       .   S
C60         C59 1.540       .   A
C61         C60 1.541       .   A
C62         C61 1.541       .   A
C61         H75 1.139       .   S
C62         H76 1.139       .   S
