data_acs_v1-6c_Al_1_Ch_1-1B_4H_Ch
_audit_creation_date              2021-04-19
_audit_creation_method            'tobacco_3.0'
_symmetry_space_group_name_H-M    'P1'
_symmetry_Int_Tables_number       1
_symmetry_cell_setting            triclinic
loop_
_symmetry_equiv_pos_as_xyz
  x,y,z
_cell_length_a                    17.41147137869388
_cell_length_b                    17.3589221714191
_cell_length_c                    14.274174683310394
_cell_angle_alpha                 89.5280929852792
_cell_angle_beta                  90.29169924502469
_cell_angle_gamma                 119.55934144198667
loop_
_atom_site_label
_atom_site_type_symbol
_atom_site_fract_x
_atom_site_fract_y
_atom_site_fract_z
_atom_site_charge
O1         O    0.3336371403    0.8011766101    0.8506771818         -1.4368
C2         C    0.4114904876    0.5858799498    0.6226014960          0.3568
O3         O    0.4661491906    0.6490704151    0.6662392860         -1.3279
O4         O    0.4674196712    0.7972829668    0.6494819637         -1.3639
Al5       Al    0.4549983414    0.7257808242    0.7549184305          1.4898
C6         C    0.4208889062    0.8309961791    0.6253060052          0.3093
O7         O    0.2039660593    0.6664058555    0.6422282495         -1.4261
O8         O    0.1987980347    0.5351982152    0.8594908629         -1.3617
Al9       Al    0.2744002333    0.7272213329    0.7460765883          1.9012
O10        O    0.1829162144    0.5298774347    0.6707118908         -1.3523
O11        O    0.3497766551    0.5294373517    0.8454434685         -1.3508
O12        O    0.3320785910    0.5320409918    0.6538048264         -1.4075
O13        O    0.4669911314    0.6652481191    0.8553239354         -1.3895
O14        O    0.3329751066    0.6651588410    0.7531430537         -1.7508
O15        O    0.4674541612    0.8171538577    0.8393641684         -1.3428
C16        C    0.4137170105    0.8349813609    0.8746392994          0.3644
C17        C    0.1678261870    0.5832785665    0.6266611261          0.3284
Al18      Al    0.2735607229    0.5440839044    0.7571688857          1.5556
O19        O    0.3497677479    0.8161426486    0.6592729774          -1.389
C20        C    0.4231097623    0.5829484268    0.8771476187            0.37
C21        C    0.1627676463    0.5821155168    0.8736444547          0.3188
O22        O    0.1831544456    0.6538006983    0.8278219168         -1.4422
O23        O    0.8015798369    0.3341634224    0.1490729089         -1.4368
C24        C    0.5867277571    0.4121840769    0.3774130421          0.3568
O25        O    0.6498858534    0.4670473533    0.3335504762         -1.3279
O26        O    0.7974617874    0.4679798716    0.3500223584         -1.3639
Al27      Al    0.7264904035    0.4559229153    0.2447455527          1.4898
C28        C    0.8308833237    0.4211308841    0.3742224518          0.3093
O29        O    0.6665580587    0.2037079148    0.3580266912         -1.4261
O30        O    0.5364206556    0.1993406149    0.1410234513         -1.3617
Al31      Al    0.7275359045    0.2745692782    0.2539278409          1.9012
O32        O    0.5306088872    0.1829224148    0.3298436963         -1.3523
O33        O    0.5309538266    0.3509052330    0.1547950453         -1.3508
O34        O    0.5330236202    0.3326400796    0.3464632885         -1.4075
O35        O    0.6664810825    0.4683436714    0.1444323913         -1.3895
O36        O    0.6658601374    0.3335247107    0.2468685916         -1.7508
O37        O    0.8177357269    0.4684600344    0.1601011939         -1.3428
C38        C    0.8354720755    0.4145598081    0.1248939412          0.3664
C39        C    0.5836523883    0.1675505232    0.3738213467          0.3284
Al40      Al    0.5451621372    0.2741257247    0.2431869045          1.5556
O41        O    0.8160315571    0.3498392364    0.3404188215          -1.389
C42        C    0.5844790607    0.4245074736    0.1228491841            0.37
C43        C    0.5831119453    0.1631057609    0.1268486316          0.3188
O44        O    0.6544334328    0.1833125260    0.1724957292         -1.4422
C95        C    0.9202417732    0.5123433079    0.9768260976          0.3782
C96        C    0.9167878388    0.4561886034    0.0624716368          0.3782
C97        C    0.9956659265    0.4421829580    0.0849147371          0.3782
C98        C    0.0779979487    0.4843320170    0.0217122983          0.3782
C99        C    0.0814518831    0.5404867215    0.9360667591          0.3782
C100       C    0.0025737953    0.5544923669    0.9136236587          0.3782
H101       H    0.8618515004    0.5227111233    0.9602123739          0.3782
H102       H    0.9931118328    0.4006170021    0.1483099711          0.3782
H103       H    0.1363882215    0.4739642016    0.0383260220          0.3782
H104       H    0.0051278890    0.5960583228    0.8502284248          0.3782
C85        C    0.9660981655    0.5623199293    0.4581110735          0.3782
C86        C    0.9162473845    0.4622108004    0.4381774801          0.3782
C87        C    0.9495039744    0.4020955964    0.4805081956          0.3782
C88        C    0.0326113453    0.4420895213    0.5427725045          0.3782
C89        C    0.0824621262    0.5421986502    0.5627060978          0.3782
C90        C    0.0492055363    0.6023138542    0.5203753823          0.3782
H91        H    0.9414796509    0.6068207946    0.4267753490          0.3782
H92        H    0.9126056560    0.3279932725    0.4657547602          0.3782
H93        H    0.0572298598    0.3975886560    0.5741082289          0.3782
H94        H    0.0861038548    0.6764161781    0.5351288177          0.3782
C75        C    0.4865044485    0.9908832084    0.3929698518          0.3782
C76        C    0.5426828528    0.0828357275    0.4371230745          0.3782
C77        C    0.5584490515    0.0912258702    0.5437168987          0.3782
C78        C    0.5180368459    0.0076634939    0.6061575001          0.3782
C79        C    0.4618584416    0.9157109749    0.5620042774          0.3782
C80        C    0.4460922429    0.9073208321    0.4554104532          0.3782
H81        H    0.4748333664    0.9846723235    0.3140627352          0.3782
H82        H    0.6000326057    0.1592890636    0.5764023306          0.3782
H83        H    0.5297079281    0.0138743788    0.6850646167          0.3782
H84        H    0.4045086888    0.8392576388    0.4227250213          0.3782
C65        C    0.4243791326    0.9103274597    0.0393506175          0.3782
C66        C    0.4559596974    0.9168070441    0.9375337410          0.3782
C67        C    0.5299950427    0.0055231453    0.8989270890          0.3782
C68        C    0.5724498232    0.0877596621    0.9621373135          0.3782
C69        C    0.5408692585    0.0812800777    0.0639541900          0.3782
C70        C    0.4668339131    0.9925639765    0.1025608420          0.3782
H71        H    0.3695737471    0.8446545016    0.0679295677          0.3782
H72        H    0.5533732075    0.0103221183    0.8235613771          0.3782
H73        H    0.6272552088    0.1534326202    0.9335583633          0.3782
H74        H    0.4434557483    0.9877650035    0.1779265539          0.3782
C55        C    0.4062024574    0.4778334901    0.0129124556          0.3782
C56        C    0.4618627216    0.5448987118    0.9361530358          0.3782
C57        C    0.5594546757    0.5707931719    0.9232389816          0.3782
C58        C    0.6013863655    0.5296224102    0.9870843472          0.3782
C59        C    0.5457261013    0.4625571886    0.0638437670          0.3782
C60        C    0.4481341473    0.4366627285    0.0767578212          0.3782
H61        H    0.3339590628    0.4586648639    0.0224722100          0.3782
H62        H    0.6006572939    0.6204354301    0.8664215232          0.3782
H63        H    0.6736297601    0.5487910365    0.9775245928          0.3782
H64        H    0.4069315290    0.3870204703    0.1335752796          0.3782
C45        C    0.5514469521    0.5984034320    0.5232647734          0.3782
C46        C    0.4564440656    0.5413217860    0.5597033562          0.3782
C47        C    0.4041062358    0.4419503674    0.5364458517          0.3782
C48        C    0.4467712926    0.3996605948    0.4767497646          0.3782
C49        C    0.5417741791    0.4567422408    0.4403111819          0.3782
C50        C    0.5941120089    0.5561136594    0.4635686863          0.3782
H51        H    0.5901905404    0.6719640925    0.5404813676          0.3782
H52        H    0.3337837805    0.3996955911    0.5634168251          0.3782
H53        H    0.4080277043    0.3260999343    0.4595331704          0.3782
H54        H    0.6644344642    0.5983684357    0.4365977129          0.3782
loop_
_geom_bond_atom_site_label_1
_geom_bond_atom_site_label_2
_geom_bond_distance
_geom_bond_site_symmetry_2
_ccdc_geom_bond_type
O1          C16 1.264       .   A
O1          Al9 1.910       .   S
C2          O12 1.307       .   A
C2           O3 1.213       .   A
C2          C46 1.623       .   S
O3          Al5 1.923       .   S
O4          Al5 1.887       .   S
O4           C6 1.257       .   A
Al5         O13 1.841       .   S
Al5         O14 1.849       .   S
Al5         O15 1.925       .   S
C6          O19 1.234       .   A
C6          C79 1.561       .   S
O7          Al9 1.883       .   S
O7          C17 1.279       .   A
O8         Al18 1.915       .   S
O8          C21 1.267       .   A
Al9         O14 1.814       .   S
Al9         O22 1.873       .   S
Al9         O19 1.904       .   S
O10        Al18 1.918       .   S
O10         C17 1.246       .   A
O11         C20 1.236       .   A
O11        Al18 1.930       .   S
O12        Al18 1.868       .   S
O13         C20 1.281       .   A
O14        Al18 1.829       .   S
O15         C16 1.232       .   A
C16         C66 1.532       .   S
C17         C89 1.582       .   S
C20         C56 1.423       .   S
C21         O22 1.287       .   A
C21         C99 1.521       .   S
O23         C38 1.264       .   A
O23        Al31 1.910       .   S
C24         O34 1.307       .   A
C24         O25 1.213       .   A
C24         C49 1.623       .   S
O25        Al27 1.923       .   S
O26        Al27 1.887       .   S
O26         C28 1.257       .   A
Al27        O35 1.841       .   S
Al27        O36 1.849       .   S
Al27        O37 1.925       .   S
C28         O41 1.234       .   A
C28         C86 1.582   1_655   S
O29        Al31 1.883       .   S
O29         C39 1.279       .   A
O30        Al40 1.915       .   S
O30         C43 1.267       .   A
Al31        O36 1.814       .   S
Al31        O44 1.873       .   S
Al31        O41 1.904       .   S
O32        Al40 1.918       .   S
O32         C39 1.246       .   A
O33         C42 1.236       .   A
O33        Al40 1.930       .   S
O34        Al40 1.868       .   S
O35         C42 1.281       .   A
O36        Al40 1.829       .   S
O37         C38 1.232       .   A
C38         C96 1.521   1_654   S
C39         C76 1.561   1_545   S
C42         C59 1.423   1_554   S
C43         O44 1.287       .   A
C43         C69 1.532   1_544   S
C95         C96 1.540       .   A
C95        C100 1.540       .   A
C95        H101 1.140       .   S
C96         C97 1.540       .   A
C97         C98 1.540       .   A
C97        H102 1.140       .   S
C98         C99 1.540       .   A
C98        H103 1.140       .   S
C99        C100 1.540       .   A
C100       H104 1.140       .   S
C85         C86 1.540       .   A
C85         C90 1.540       .   A
C85         H91 1.140       .   S
C86         C87 1.540       .   A
C87         C88 1.540       .   A
C87         H92 1.140       .   S
C88         C89 1.540       .   A
C88         H93 1.140       .   S
C89         C90 1.540       .   A
C90         H94 1.140       .   S
C75         C76 1.540       .   A
C75         C80 1.540       .   A
C75         H81 1.140       .   S
C76         C77 1.540       .   A
C77         C78 1.540       .   A
C77         H82 1.140       .   S
C78         C79 1.540       .   A
C78         H83 1.140       .   S
C79         C80 1.540       .   A
C80         H84 1.140       .   S
C65         C66 1.540       .   A
C65         C70 1.540       .   A
C65         H71 1.140       .   S
C66         C67 1.540       .   A
C67         C68 1.540       .   A
C67         H72 1.140       .   S
C68         C69 1.540       .   A
C68         H73 1.140       .   S
C69         C70 1.540       .   A
C70         H74 1.140       .   S
C55         C56 1.540       .   A
C55         C60 1.540       .   A
C55         H61 1.140       .   S
C56         C57 1.540       .   A
C57         C58 1.540       .   A
C57         H62 1.140       .   S
C58         C59 1.540       .   A
C58         H63 1.140       .   S
C59         C60 1.540       .   A
C60         H64 1.140       .   S
C45         C46 1.540       .   A
C45         C50 1.540       .   A
C45         H51 1.140       .   S
C46         C47 1.540       .   A
C47         C48 1.540       .   A
C47         H52 1.140       .   S
C48         C49 1.540       .   A
C48         H53 1.140       .   S
C49         C50 1.540       .   A
C50         H54 1.140       .   S
