data_acs_v1-6c_Al_1_1-3B_4H_Ch
_audit_creation_date              2021-06-14
_audit_creation_method            'tobacco_3.0'
_symmetry_space_group_name_H-M    'P1'
_symmetry_Int_Tables_number       1
_symmetry_cell_setting            triclinic
loop_
_symmetry_equiv_pos_as_xyz
  x,y,z
_cell_length_a                    30.524849958779168
_cell_length_b                    30.524849782971124
_cell_length_c                    24.206421151140173
_cell_angle_alpha                 90.00000410771611
_cell_angle_beta                  90.00000292834623
_cell_angle_gamma                 120.00070723247067
loop_
_atom_site_label
_atom_site_type_symbol
_atom_site_fract_x
_atom_site_fract_y
_atom_site_fract_z
_atom_site_charge
O1         O    0.2560455597    0.6645096960    0.8017920403          0.7946
O2         O    0.4083622124    0.7439525336    0.8017920485          0.7946
O3         O    0.3354884525    0.5916415615    0.8017920396          0.7946
O4         O    0.2560441530    0.5916368457    0.8017920371          0.7946
O5         O    0.4083615741    0.6645135484    0.8017920450          0.7946
O6         O    0.3354904976    0.7439533970    0.8017920462          0.7946
C7         C    0.2398088102    0.6199553201    0.8201177538          0.7946
C8         C    0.3800446869    0.7601890134    0.8201177644          0.7946
C9         C    0.3800465129    0.6199556776    0.8201177582          0.7946
O10        O    0.2560455548    0.6645096906    0.6982079547          0.7946
O11        O    0.4083622075    0.7439525281    0.6982079630          0.7946
O12        O    0.3354884476    0.5916415560    0.6982079540          0.7946
O13        O    0.2560441481    0.5916368403    0.6982079515          0.7946
O14        O    0.4083615692    0.6645135429    0.6982079595          0.7946
O15        O    0.3354904927    0.7439533915    0.6982079607          0.7946
Al16      Al    0.3004959189    0.6995099824    0.7500041315             1.0
Al17      Al    0.3989185891    0.6995107910    0.7500041346             1.0
Al18      Al    0.3004920442    0.6010857786    0.7500041272             1.0
O19        O    0.3333034450    0.6667009231    0.7500041311          0.7946
C20        C    0.2398088035    0.6199553127    0.6798822362          0.7946
C21        C    0.3800446803    0.7601890060    0.6798822468          0.7946
C22        C    0.3800465062    0.6199556702    0.6798822406          0.7946
O23        O    0.7438882048    0.3355565494    0.3017920444          0.7946
O24        O    0.5915715521    0.2561137118    0.3017920362          0.7946
O25        O    0.6644453121    0.4084246840    0.3017920451          0.7946
O26        O    0.7438896116    0.4084293997    0.3017920476          0.7946
O27        O    0.5915721905    0.3355526970    0.3017920397          0.7946
O28        O    0.6644432669    0.2561128484    0.3017920385          0.7946
C29        C    0.7601249561    0.3801109272    0.3201177629          0.7946
C30        C    0.6198890794    0.2398772340    0.3201177524          0.7946
C31        C    0.6198872534    0.3801105697    0.3201177585          0.7946
O32        O    0.7438881999    0.3355565439    0.1982079588          0.7946
O33        O    0.5915715472    0.2561137063    0.1982079506          0.7946
O34        O    0.6644453072    0.4084246785    0.1982079596          0.7946
O35        O    0.7438896067    0.4084293942    0.1982079620          0.7946
O36        O    0.5915721856    0.3355526915    0.1982079541          0.7946
O37        O    0.6644432620    0.2561128430    0.1982079529          0.7946
Al38      Al    0.6994378407    0.3005562576    0.2500041298             1.0
Al39      Al    0.6010151706    0.3005554489    0.2500041268             1.0
Al40      Al    0.6994417155    0.3989804613    0.2500041342             1.0
O41        O    0.6666303147    0.3333653169    0.2500041303          0.7946
C42        C    0.7601249495    0.3801109198    0.1798822453          0.7946
C43        C    0.6198890727    0.2398772265    0.1798822347          0.7946
C44        C    0.6198872468    0.3801105623    0.1798822409          0.7946
C195       C    0.8081452453    0.4041213150    0.1438668636         -0.2197
C196       C    0.8566262778    0.4057529496    0.1645235419         -0.2969
C197       C    0.9036010777    0.4269722283    0.1270067992         -0.3267
C198       C    0.9020209961    0.4464572685    0.0687736617         -0.1122
C199       C    0.8532138962    0.4439105431    0.0476543161         -0.3145
C200       C    0.8062972794    0.4228863130    0.0852934132          -0.307
C201       C    0.9495288195    0.4690459062    0.0320217341         -0.1863
C202       C    0.9986246622    0.4727801687    0.0539544425         -0.2974
C203       C    0.0466325530    0.4967566993    0.0179729917         -0.2974
C204       C    0.0455025538    0.5170540962    0.9600791117         -0.1863
C205       C    0.9961744017    0.5125409099    0.9377459617         -0.2976
C206       C    0.9481343433    0.4884954152    0.9737347336         -0.2975
C207       C    0.0939369490    0.5424574254    0.9248671219         -0.1124
C208       C    0.1430493045    0.5465927776    0.9472956031         -0.3265
C209       C    0.1919600380    0.5732256996    0.9128754101         -0.2972
C210       C    0.1917885143    0.5959449249    0.8561331355         -0.2195
C211       C    0.1424728728    0.5911982928    0.8333502522         -0.3071
C212       C    0.0934757451    0.5642858561    0.8676618582         -0.3144
H214       H    0.8578488816    0.3915234076    0.2077347627         -0.0895
H215       H    0.9396491631    0.4285421790    0.1424278865         -0.1175
H216       H    0.8519168941    0.4579251375    0.0043241248         -0.1181
H217       H    0.7702415438    0.4213182003    0.0698599864         -0.0906
H218       H    0.9994425821    0.4579562495    0.0969574845         -0.1215
H219       H    0.0831120714    0.4998515609    0.0343182163         -0.1215
H220       H    0.9953141483    0.5272784482    0.8947044982         -0.1208
H221       H    0.9116400503    0.4853458976    0.9573659362         -0.1208
H222       H    0.1432269826    0.5300628465    0.9894507969         -0.1175
H223       H    0.2283331279    0.5763874035    0.9295197191         -0.0895
H225       H    0.1422477268    0.6076629359    0.7911777005         -0.0907
H226       H    0.0569963520    0.5608110743    0.8509064530         -0.1182
C165       C    0.1917885337    0.5959449313    0.6438668749         -0.2197
C166       C    0.1718746287    0.6291047344    0.6190978128         -0.2969
C167       C    0.1256683869    0.6055013463    0.5803589049         -0.3267
C168       C    0.0994593332    0.5487358254    0.5663143399         -0.1122
C169       C    0.1199673501    0.5157377498    0.5901944933         -0.3145
C170       C    0.1660588607    0.5393196206    0.6291456780          -0.307
C171       C    0.0523603985    0.5249613912    0.5289121912         -0.1863
C172       C    0.0312046628    0.5578528261    0.5064162407         -0.2974
C173       C    0.9832198939    0.5338857426    0.4703980122         -0.2974
C174       C    0.9563840545    0.4769875725    0.4569736982         -0.1863
C175       C    0.9780210486    0.4442467883    0.4786733322         -0.2976
C176       C    0.0260654582    0.4682540221    0.5146551951         -0.2975
C177       C    0.9075266690    0.4527712957    0.4224343320         -0.1124
C178       C    0.8862507592    0.4857569659    0.4005989978         -0.3265
C179       C    0.8366204619    0.4614632811    0.3673230397         -0.2972
C180       C    0.8081452259    0.4041213086    0.3561331242         -0.2195
C181       C    0.8297988291    0.3712161324    0.3773367155         -0.3071
C182       C    0.8796125452    0.3955884458    0.4103498001         -0.3144
H184       H    0.1911594819    0.6710890075    0.6296993409         -0.0895
H185       H    0.1106625452    0.6299571316    0.5623198775         -0.1175
H186       H    0.1008182516    0.4737847768    0.5793764266         -0.1181
H187       H    0.1810642027    0.5148504977    0.6471853254         -0.0906
H188       H    0.0509964526    0.5999338063    0.5166469864         -0.1215
H189       H    0.9673203443    0.5581402476    0.4540182263         -0.1215
H190       H    0.9582925181    0.4021803707    0.4683708889         -0.1208
H191       H    0.0419991964    0.4440140110    0.5309805364         -0.1208
H192       H    0.9071702540    0.5281374851    0.4092067365         -0.1175
H193       H    0.8208124175    0.4858492575    0.3512660710         -0.0895
H195       H    0.8089379755    0.3288490883    0.3686938510         -0.0907
H196       H    0.8956335789    0.3712945043    0.4261260225         -0.1182
C135       C    0.5958780905    0.1918553134    0.3561340250         -0.2197
C136       C    0.5381437738    0.1564777111    0.3563147055         -0.2969
C137       C    0.5145312818    0.1069222767    0.3897278337         -0.3267
C138       C    0.5487061853    0.0927197718    0.4228633322         -0.1122
C139       C    0.6065416817    0.1275924778    0.4218239570         -0.3145
C140       C    0.6301347189    0.1772779297    0.3885877426          -0.307
C141       C    0.5248663654    0.0439118998    0.4575479789         -0.1863
C142       C    0.4669525136    0.0099268827    0.4596447025         -0.2974
C143       C    0.4429257301    0.9619129255    0.4956165069         -0.2974
C144       C    0.4768735744    0.9479698574    0.5295409960         -0.1863
C145       C    0.5348294379    0.9814785117    0.5267178149         -0.2976
C146       C    0.5588546513    0.0294822261    0.4906712503         -0.2975
C147       C    0.4527543040    0.9008450409    0.5668354207         -0.1124
C148       C    0.3948084359    0.8673450653    0.5692339228         -0.3265
C149       C    0.3704449489    0.8209448041    0.6076461617         -0.2972
C150       C    0.4040556691    0.8082109266    0.6438659742         -0.2195
C151       C    0.4620724242    0.8413376440    0.6409050784         -0.3071
C152       C    0.4864399325    0.8875869518    0.6022240070         -0.3144
H154       H    0.5128387561    0.1671167791    0.3319660330         -0.0895
H155       H    0.4717428524    0.0808782814    0.3902154474         -0.1175
H156       H    0.6318723581    0.1168277036    0.4459734022         -0.1181
H157       H    0.6729368967    0.2033244463    0.3881043127         -0.0906
H158       H    0.4418753975    0.0204678793    0.4347047476         -0.1215
H159       H    0.4000225635    0.9368921180    0.4974930583         -0.1215
H160       H    0.5599259320    0.9709034886    0.5515747667         -0.1208
H161       H    0.6017573584    0.0544703463    0.4887428002         -0.1208
H162       H    0.3699474654    0.8769829534    0.5426876475         -0.1175
H163       H    0.3275618876    0.7962148283    0.6095168597         -0.0895
H165       H    0.4869593213    0.8316945558    0.6673849610         -0.0907
H166       H    0.5293331043    0.9121621134    0.6000491883         -0.1182
C105       C    0.4040556603    0.8082109043    0.8561340134         -0.2177
C106       C    0.4242226881    0.8605526057    0.8293380210         -0.2969
C107       C    0.4453691276    0.9081944664    0.8657940230         -0.3267
C108       C    0.4462320211    0.9034417952    0.9290723103         -0.1122
C109       C    0.4251379938    0.8509933722    0.9559821689         -0.3145
C110       C    0.4041916275    0.8033609445    0.9194813342          -0.307
C111       C    0.4687960539    0.9512905698    0.9652820729         -0.1863
C112       C    0.4911059513    0.0037217748    0.9380453870         -0.2974
C113       C    0.5150941198    0.0517361104    0.9740166006         -0.2974
C114       C    0.5168087244    0.0472578769    0.0372349387         -0.1863
C115       C    0.4937211338    0.9947859702    0.0645673738         -0.2976
C116       C    0.4696711101    0.9467537402    0.0285661418         -0.2975
C117       C    0.5422303926    0.0953465834    0.0729966505         -0.1124
C118       C    0.5649810882    0.1476748808    0.0454540923         -0.3265
C119       C    0.5917003603    0.1959431970    0.0808958614         -0.2972
C120       C    0.5958780994    0.1918553357    0.1438659857         -0.2195
C121       C    0.5725013885    0.1394733579    0.1715250448         -0.3071
C122       C    0.5455106490    0.0911858663    0.1360849719         -0.3144
H124       H    0.4237774851    0.8640752689    0.7824691725         -0.0895
H125       H    0.4606606706    0.9470186603    0.8459583089         -0.1175
H126       H    0.4253635958    0.8474484190    0.0028871256         -0.1181
H127       H    0.3888963636    0.7645282660    0.9393307148         -0.0906
H128       H    0.4900256413    0.0069590895    0.8911949517         -0.1215
H129       H    0.5319353052    0.0906093171    0.9538648698         -0.1215
H130       H    0.4947118951    0.9915256512    0.1114254935         -0.1208
H131       H    0.4527768848    0.9078792033    0.0487200664         -0.1208
H132       H    0.5621668432    0.1506770291    0.9988073592         -0.1175
H133       H    0.6086359616    0.2346712441    0.0605066357         -0.0895
H135       H    0.5752463369    0.1364363461    0.2181690924         -0.0907
H136       H    0.5282707924    0.0524254544    0.1564677178         -0.1182
C75        C    0.4040575030    0.5959442489    0.8561345819         -0.2197
C76        C    0.4022312411    0.5984975373    0.9195351142         -0.2969
C77        C    0.4235171230    0.5717811033    0.9554171411         -0.3267
C78        C    0.4465311399    0.5424186503    0.9278495015         -0.1122
C79        C    0.4474619814    0.5389951982    0.8644333033         -0.3145
C80        C    0.4263662941    0.5659178759    0.8285469627          -0.307
C81        C    0.4691509409    0.5170450534    0.9638284824         -0.1863
C82        C    0.4693778225    0.5217934435    0.0271563618         -0.2974
C83        C    0.4933518497    0.4977888446    0.0631835375         -0.2974
C84        C    0.5171564192    0.4691002526    0.0358067809         -0.1863
C85        C    0.5161654356    0.4635933907    0.9725188904         -0.2976
C86        C    0.4921221248    0.4875657579    0.9364921614         -0.2975
C87        C    0.5425281872    0.4465112823    0.0717711450         -0.1124
C88        C    0.5431387099    0.4518936474    0.1350275832         -0.3265
C89        C    0.5697029294    0.4305887422    0.1711032824         -0.2972
C90        C    0.5958762567    0.4041219910    0.1438654172         -0.2195
C91        C    0.5946692118    0.3981207050    0.0806045081         -0.3071
C92        C    0.5678291322    0.4191802484    0.0445485142         -0.3144
H94        H    0.3853857063    0.6204268318    0.9399271192         -0.0895
H95        H    0.4225207789    0.5739674466    0.0023795726         -0.1175
H96        H    0.4640976117    0.5168532762    0.8440376345         -0.1181
H97        H    0.4273655386    0.5637258413    0.7815710432         -0.0906
H98        H    0.4519555647    0.5432807791    0.0473273334         -0.1215
H99        H    0.4938453185    0.5015703303    0.1100753659         -0.1215
H100       H    0.5335034758    0.4420310911    0.9523337383         -0.1208
H101       H    0.4915747296    0.4837339611    0.8896061610         -0.1208
H102       H    0.5240479704    0.4717788215    0.1551337836         -0.1175
H103       H    0.5702546013    0.4346669924    0.2179061428         -0.0895
H105       H    0.6136964685    0.3781919165    0.0604717783         -0.0907
H106       H    0.5669684085    0.4148376748    0.9977588385         -0.1182
C45        C    0.4040574963    0.5959442443    0.6438654189         -0.2197
C46        C    0.4135336972    0.6088462794    0.5819813722         -0.2969
C47        C    0.4403661289    0.5872083703    0.5468435411         -0.3267
C48        C    0.4578117971    0.5527474328    0.5736640569         -0.1122
C49        C    0.4492512432    0.5406334813    0.6358067656         -0.3145
C50        C    0.4222038836    0.5621066964    0.6708945541          -0.307
C51        C    0.4832520585    0.5299563021    0.5380635046         -0.1863
C52        C    0.4904312542    0.5410703612    0.4756684389         -0.2974
C53        C    0.5144439870    0.5171012014    0.4396464558         -0.2974
C54        C    0.5311972342    0.4819562865    0.4660771138         -0.1863
C55        C    0.5248232104    0.4715206123    0.5286427446         -0.2976
C56        C    0.5008503920    0.4955575242    0.5646789325         -0.2975
C57        C    0.5537138826    0.4567531145    0.4297296695         -0.1124
C58        C    0.5602542455    0.4675649522    0.3672688568         -0.3265
C59        C    0.5814563913    0.4413504311    0.3304737121         -0.2972
C60        C    0.5958762633    0.4041219956    0.3561345802         -0.2195
C61        C    0.5899818816    0.3938288965    0.4187665741         -0.3071
C62        C    0.5690460431    0.4202944744    0.4556147576         -0.3144
H64        H    0.4004137581    0.6341867993    0.5620892429         -0.0895
H65        H    0.4470654637    0.5964410215    0.5009136622         -0.1175
H66        H    0.4625935220    0.5154761050    0.6557605542         -0.1181
H67        H    0.4155067099    0.5528676770    0.7168378218         -0.0906
H68        H    0.4777575028    0.5669055182    0.4561345898         -0.1215
H69        H    0.5194712601    0.5250339231    0.3933629423         -0.1215
H70        H    0.5375746651    0.4457587490    0.5482124996         -0.1208
H71        H    0.4958776232    0.4876737725    0.6109711664         -0.1208
H72        H    0.5492630987    0.4948662655    0.3482494037         -0.1175
H73        H    0.5861941285    0.4492615210    0.2842325095         -0.0895
H75        H    0.6010172652    0.3665825989    0.4378270095         -0.0907
H76        H    0.5645956509    0.4126651334    0.5019227958         -0.1182
loop_
_geom_bond_atom_site_label_1
_geom_bond_atom_site_label_2
_geom_bond_distance
_geom_bond_site_symmetry_2
_ccdc_geom_bond_type
O1         Al16 1.762       .   S
O1           C7 1.272       .   A
O2         Al17 1.762       .   S
O2           C8 1.272       .   A
O3         Al18 1.762       .   S
O3           C9 1.272       .   A
O4         Al18 1.762       .   S
O4           C7 1.272       .   A
O5         Al17 1.762       .   S
O5           C9 1.272       .   A
O6         Al16 1.762       .   S
O6           C8 1.272       .   A
C7         C210 1.540       .   S
C8         C105 1.540       .   S
C9          C75 1.540       .   S
O10        Al16 1.762       .   S
O10         C20 1.272       .   A
O11        Al17 1.762       .   S
O11         C21 1.272       .   A
O12        Al18 1.762       .   S
O12         C22 1.272       .   A
O13        Al18 1.762       .   S
O13         C20 1.272       .   A
O14        Al17 1.762       .   S
O14         C22 1.272       .   A
O15        Al16 1.762       .   S
O15         C21 1.272       .   A
Al16        O19 1.735       .   S
Al17        O19 1.735       .   S
Al18        O19 1.735       .   S
C20        C165 1.540       .   S
C21        C150 1.540       .   S
C22         C45 1.540       .   S
O23        Al38 1.762       .   S
O23         C29 1.272       .   A
O24        Al39 1.762       .   S
O24         C30 1.272       .   A
O25        Al40 1.762       .   S
O25         C31 1.272       .   A
O26        Al40 1.762       .   S
O26         C29 1.272       .   A
O27        Al39 1.762       .   S
O27         C31 1.272       .   A
O28        Al38 1.762       .   S
O28         C30 1.272       .   A
C29        C180 1.540   1_655   S
C30        C135 1.540   1_545   S
C31         C60 1.540       .   S
O32        Al38 1.762       .   S
O32         C42 1.272       .   A
O33        Al39 1.762       .   S
O33         C43 1.272       .   A
O34        Al40 1.762       .   S
O34         C44 1.272       .   A
O35        Al40 1.762       .   S
O35         C42 1.272       .   A
O36        Al39 1.762       .   S
O36         C44 1.272       .   A
O37        Al38 1.762       .   S
O37         C43 1.272       .   A
Al38        O41 1.735       .   S
Al39        O41 1.735       .   S
Al40        O41 1.735       .   S
C42        C195 1.540   1_654   S
C43        C120 1.540   1_544   S
C44         C90 1.540   1_554   S
C196       C195 1.539       .   A
C195       C200 1.540       .   A
H214       C196 1.140       .   S
C197       C196 1.540       .   A
H215       C197 1.140       .   S
C197       C198 1.540       .   A
C201       C198 1.539       .   S
C199       C198 1.540       .   A
H216       C199 1.141       .   S
C200       C199 1.541       .   A
H217       C200 1.141       .   S
C206       C201 1.539       .   A
C202       C201 1.540       .   A
H218       C202 1.140       .   S
C202       C203 1.539       .   A
H219       C203 1.140       .   S
C204       C203 1.540       .   A
C207       C204 1.539       .   S
C205       C204 1.540       .   A
H220       C205 1.140       .   S
C206       C205 1.540       .   A
H221       C206 1.140       .   S
C212       C207 1.540       .   A
C207       C208 1.539       .   A
H222       C208 1.140       .   S
C209       C208 1.540       .   A
H223       C209 1.139       .   S
C210       C209 1.540       .   A
C211       C210 1.541       .   A
C212       C211 1.541       .   A
C211       H225 1.139       .   S
C212       H226 1.139       .   S
C166       C165 1.539       .   A
C165       C170 1.540       .   A
H184       C166 1.140       .   S
C167       C166 1.540       .   A
H185       C167 1.140       .   S
C167       C168 1.540       .   A
C171       C168 1.539       .   S
C169       C168 1.540       .   A
H186       C169 1.141       .   S
C170       C169 1.541       .   A
H187       C170 1.141       .   S
C176       C171 1.539       .   A
C172       C171 1.540       .   A
H188       C172 1.140       .   S
C172       C173 1.539       .   A
H189       C173 1.140       .   S
C174       C173 1.540       .   A
C177       C174 1.539       .   S
C175       C174 1.540       .   A
H190       C175 1.140       .   S
C176       C175 1.540       .   A
H191       C176 1.140       .   S
C182       C177 1.540       .   A
C177       C178 1.539       .   A
H192       C178 1.140       .   S
C179       C178 1.540       .   A
H193       C179 1.139       .   S
C180       C179 1.540       .   A
C181       C180 1.541       .   A
C182       C181 1.541       .   A
C181       H195 1.139       .   S
C182       H196 1.139       .   S
C136       C135 1.539       .   A
C135       C140 1.540       .   A
H154       C136 1.140       .   S
C137       C136 1.540       .   A
H155       C137 1.140       .   S
C137       C138 1.540       .   A
C141       C138 1.539       .   S
C139       C138 1.540       .   A
H156       C139 1.141       .   S
C140       C139 1.541       .   A
H157       C140 1.141       .   S
C146       C141 1.539       .   A
C142       C141 1.540       .   A
H158       C142 1.140       .   S
C142       C143 1.539       .   A
H159       C143 1.140       .   S
C144       C143 1.540       .   A
C147       C144 1.539       .   S
C145       C144 1.540       .   A
H160       C145 1.140       .   S
C146       C145 1.540       .   A
H161       C146 1.140       .   S
C152       C147 1.540       .   A
C147       C148 1.539       .   A
H162       C148 1.140       .   S
C149       C148 1.540       .   A
H163       C149 1.139       .   S
C150       C149 1.540       .   A
C151       C150 1.541       .   A
C152       C151 1.541       .   A
C151       H165 1.139       .   S
C152       H166 1.139       .   S
C106       C105 1.539       .   A
C105       C110 1.540       .   A
H124       C106 1.140       .   S
C107       C106 1.540       .   A
H125       C107 1.140       .   S
C107       C108 1.540       .   A
C111       C108 1.539       .   S
C109       C108 1.540       .   A
H126       C109 1.141       .   S
C110       C109 1.541       .   A
H127       C110 1.141       .   S
C116       C111 1.539       .   A
C112       C111 1.540       .   A
H128       C112 1.140       .   S
C112       C113 1.539       .   A
H129       C113 1.140       .   S
C114       C113 1.540       .   A
C117       C114 1.539       .   S
C115       C114 1.540       .   A
H130       C115 1.140       .   S
C116       C115 1.540       .   A
H131       C116 1.140       .   S
C122       C117 1.540       .   A
C117       C118 1.539       .   A
H132       C118 1.140       .   S
C119       C118 1.540       .   A
H133       C119 1.139       .   S
C120       C119 1.540       .   A
C121       C120 1.541       .   A
C122       C121 1.541       .   A
C121       H135 1.139       .   S
C122       H136 1.139       .   S
C76         C75 1.539       .   A
C75         C80 1.540       .   A
H94         C76 1.140       .   S
C77         C76 1.540       .   A
H95         C77 1.140       .   S
C77         C78 1.540       .   A
C81         C78 1.539       .   S
C79         C78 1.540       .   A
H96         C79 1.141       .   S
C80         C79 1.541       .   A
H97         C80 1.141       .   S
C86         C81 1.539       .   A
C82         C81 1.540       .   A
H98         C82 1.140       .   S
C82         C83 1.539       .   A
H99         C83 1.140       .   S
C84         C83 1.540       .   A
C87         C84 1.539       .   S
C85         C84 1.540       .   A
H100        C85 1.140       .   S
C86         C85 1.540       .   A
H101        C86 1.140       .   S
C92         C87 1.540       .   A
C87         C88 1.539       .   A
H102        C88 1.140       .   S
C89         C88 1.540       .   A
H103        C89 1.139       .   S
C90         C89 1.540       .   A
C91         C90 1.541       .   A
C92         C91 1.541       .   A
C91        H105 1.139       .   S
C92        H106 1.139       .   S
C46         C45 1.539       .   A
C45         C50 1.540       .   A
H64         C46 1.140       .   S
C47         C46 1.540       .   A
H65         C47 1.140       .   S
C47         C48 1.540       .   A
C51         C48 1.539       .   S
C49         C48 1.540       .   A
H66         C49 1.141       .   S
C50         C49 1.541       .   A
H67         C50 1.141       .   S
C56         C51 1.539       .   A
C52         C51 1.540       .   A
H68         C52 1.140       .   S
C52         C53 1.539       .   A
H69         C53 1.140       .   S
C54         C53 1.540       .   A
C57         C54 1.539       .   S
C55         C54 1.540       .   A
H70         C55 1.140       .   S
C56         C55 1.540       .   A
H71         C56 1.140       .   S
C62         C57 1.540       .   A
C57         C58 1.539       .   A
H72         C58 1.140       .   S
C59         C58 1.540       .   A
H73         C59 1.139       .   S
C60         C59 1.540       .   A
C61         C60 1.541       .   A
C62         C61 1.541       .   A
C61         H75 1.139       .   S
C62         H76 1.139       .   S
