data_acs_v1-6c_Al_1_Ch_1-1B_2DoU_Ch
_audit_creation_date              2021-04-19
_audit_creation_method            'tobacco_3.0'
_symmetry_space_group_name_H-M    'P1'
_symmetry_Int_Tables_number       1
_symmetry_cell_setting            triclinic
loop_
_symmetry_equiv_pos_as_xyz
  x,y,z
_cell_length_a                    24.548245733727917
_cell_length_b                    24.469486279252873
_cell_length_c                    20.12189452834179
_cell_angle_alpha                 89.42048119308714
_cell_angle_beta                  90.3472641762288
_cell_angle_gamma                 119.57472056184416
loop_
_atom_site_label
_atom_site_type_symbol
_atom_site_fract_x
_atom_site_fract_y
_atom_site_fract_z
_atom_site_charge
O1         O    0.3335614662    0.7620565715    0.8213095905          -0.816
C2         C    0.3887466547    0.6094314029    0.6597240227          0.9775
O3         O    0.4275268854    0.6542445880    0.6906518338         -0.7072
O4         O    0.4284508029    0.7594095837    0.6786435243         -0.7431
Al5       Al    0.4196307038    0.7086221034    0.7534925226          1.4898
C6         C    0.3954510944    0.7833390805    0.6614458944            0.93
O7         O    0.2415609429    0.6665412565    0.6734928152         -0.8053
O8         O    0.2378780211    0.5733336993    0.8277223132         -0.7409
Al9       Al    0.2915313285    0.7096381411    0.7471421432          1.9012
O10        O    0.2266093709    0.5696586401    0.6938016917         -0.7316
O11        O    0.3449670888    0.5692628756    0.8178261899         -0.7301
O12        O    0.3324113528    0.5712115688    0.6818696815         -0.7867
O13        O    0.4281293357    0.6656215161    0.8247740095         -0.7688
O14        O    0.3330693574    0.6656048565    0.7522307794         -1.1301
O15        O    0.4284811075    0.7734063325    0.8133281116          -0.722
C16        C    0.3903682585    0.7860327907    0.8383145243          0.9851
C17        C    0.2159135589    0.6075690979    0.6625023047          0.9491
Al18      Al    0.2909075992    0.5796971995    0.7551605093          1.5556
O19        O    0.3450025597    0.7727781992    0.6855236677         -0.7683
C20        C    0.3969915265    0.6072160787    0.8403042507          0.9908
C21        C    0.2123289070    0.6066115493    0.8377090033          0.9396
O22        O    0.2267998619    0.6574974899    0.8051528662         -0.8215
O23        O    0.7625464176    0.3340007170    0.1784616469          -0.816
C24        C    0.6101650059    0.3892196714    0.3402892630          0.9775
O25        O    0.6549714295    0.4281723077    0.3091557853         -0.7072
O26        O    0.7596484805    0.4288339858    0.3209028845         -0.7431
Al27      Al    0.7093048222    0.4203321397    0.2461999861          1.4898
C28        C    0.7833477053    0.3955838992    0.3381225750            0.93
O29        O    0.6667569065    0.2413224590    0.3267403506         -0.8053
O30        O    0.5744461850    0.2383330578    0.1727482032         -0.7409
Al31      Al    0.7100185976    0.2916579982    0.2528618125          1.9012
O32        O    0.5703236072    0.2265822391    0.3067065888         -0.7316
O33        O    0.5705920203    0.3458594295    0.1823920213         -0.7301
O34        O    0.5720596433    0.3327971508    0.3183756119         -0.7867
O35        O    0.6667404648    0.4291950618    0.1750030091         -0.7688
O36        O    0.6662805071    0.3334865709    0.2477798127         -1.1301
O37        O    0.7740267171    0.4292783392    0.1861826408          -0.722
C38        C    0.7865985187    0.3910565393    0.1612583141          0.9851
C39        C    0.6079459221    0.2156554726    0.3379390598          0.9491
Al40      Al    0.5806593289    0.2913380360    0.2451649827          1.5556
O41        O    0.7728018541    0.3450202634    0.3141942382         -0.7683
C42        C    0.6085688117    0.3981002292    0.1596928071          0.9908
C43        C    0.6075589152    0.2126351370    0.1627420665          0.9396
O44        O    0.6581514390    0.2269514086    0.1951376673         -0.8215
C135       C    0.9485900931    0.4532570856    0.0476272853          0.1888
C136       C    0.0069750929    0.4469982983    0.0345874226          -0.192
C137       C    0.0557908440    0.4900409150    0.9829934169         -0.1148
C138       C    0.0460631387    0.5391902215    0.9443402257          0.2114
C139       C    0.9870645174    0.5446014033    0.9563751094         -0.2083
C140       C    0.9383925995    0.5017629179    0.0082229842         -0.1166
C141       C    0.0956439799    0.5832438590    0.8940365828         -0.1583
C142       C    0.1542292110    0.5771946204    0.8818639829         -0.2968
C143       C    0.9009293070    0.4115155399    0.1006982440         -0.0395
C144       C    0.8446982147    0.4204734682    0.1171033345         -0.4049
H145       H    0.0142679408    0.4107777943    0.0634304073          0.1229
H146       H    0.0992282806    0.4856556372    0.9735520521          0.1192
H147       H    0.9796217599    0.5805788976    0.9272296705          0.1135
H148       H    0.8948732843    0.5060582586    0.0175443064          0.1159
H157       H    0.0891969477    0.6204610228    0.8661936672          0.1434
H158       H    0.1597186715    0.5388301650    0.9085363466          0.1311
H159       H    0.9078148530    0.3746129289    0.1286641347          0.1079
H160       H    0.8382224409    0.4579283961    0.0897625466           0.128
C117       C    0.9305936446    0.4644888692    0.4790381613          0.1888
C118       C    0.9479454543    0.4756398576    0.5531994355          -0.192
C119       C    0.0172217878    0.5091577704    0.5745165302         -0.1148
C120       C    0.0690841073    0.5313298765    0.5216284661          0.2114
C121       C    0.0517335990    0.5190529500    0.4475603030         -0.2083
C122       C    0.9824485364    0.4858082886    0.4262155578         -0.1166
C123       C    0.1383076771    0.5662283236    0.5428681477         -0.1583
C124       C    0.1552749459    0.5778522621    0.6170296056         -0.2968
C125       C    0.8614038106    0.4327517374    0.4578294590         -0.0395
C126       C    0.8439863183    0.4253007349    0.3835952741         -0.4049
H127       H    0.9095245680    0.4594447701    0.5923002543          0.1229
H128       H    0.0301270916    0.5177306203    0.6294364579          0.1192
H129       H    0.0901696875    0.5349298198    0.4085172060          0.1135
H130       H    0.9695482584    0.4771064853    0.3712867276          0.1159
H139       H    0.1768701038    0.5837366554    0.5038121468          0.1434
H140       H    0.1165654394    0.5588320225    0.6560537520          0.1311
H141       H    0.8230464923    0.4156598515    0.4971094880          0.1079
H142       H    0.8823639481    0.4431210539    0.3442677124           0.128
C99        C    0.4931752796    0.9537008242    0.5566780239          0.1888
C100       C    0.5472446374    0.0220206146    0.5587088279          -0.192
C101       C    0.5581443787    0.0665760886    0.4994807049         -0.1148
C102       C    0.5150514792    0.0426903618    0.4381786643          0.2114
C103       C    0.4617760655    0.9740283274    0.4355465762         -0.2083
C104       C    0.4506778085    0.9295500032    0.4949295101         -0.1166
C105       C    0.5249943384    0.0876845800    0.3797568835         -0.1583
C106       C    0.5786721803    0.1560986419    0.3825060532         -0.2968
C107       C    0.4812374868    0.9099139775    0.6168087449         -0.0395
C108       C    0.4247248363    0.8428959112    0.6168789011         -0.4049
H109       H    0.5789594163    0.0397362151    0.6042321189          0.1229
H110       H    0.5979961091    0.1172989795    0.5010921955          0.1192
H111       H    0.4303133218    0.9562447675    0.3898426951          0.1135
H112       H    0.4109030320    0.8787729911    0.4932389869          0.1159
H121       H    0.4925048342    0.0705236737    0.3347988463          0.1434
H122       H    0.6120724941    0.1726404159    0.4267988380          0.1311
H123       H    0.5136800798    0.9274559466    0.6618021193          0.1079
H124       H    0.3917832671    0.8255902149    0.5722521879           0.128
C81        C    0.5164656772    0.0407333888    0.0625916951          0.1888
C82        C    0.4817572324    0.9686808181    0.0697242356          -0.192
C83        C    0.4606032909    0.9273230587    0.0073085563         -0.1148
C84        C    0.4740277348    0.9580841598    0.9378025763          0.2114
C85        C    0.5075942130    0.0301009846    0.9306607423         -0.2083
C86        C    0.5290329829    0.0714744737    0.9930855849         -0.1166
C87        C    0.4542892576    0.9167527517    0.8754625356         -0.1583
C88        C    0.4202854496    0.8447956495    0.8830031905         -0.2968
C89        C    0.5392504133    0.0818922809    0.1250160564         -0.0395
C90        C    0.5776417242    0.1538722781    0.1180534003         -0.4049
H91        H    0.4720741436    0.9459539613    0.1211975514          0.1229
H92        H    0.4351720259    0.8739346086    0.0125448311          0.1192
H93        H    0.5169305088    0.0527851726    0.8791800306          0.1135
H94        H    0.5543394943    0.1248748680    0.9878368310          0.1159
H103       H    0.4651421008    0.9393409632    0.8239048310          0.1434
H104       H    0.4080666315    0.8223446135    0.9346483809          0.1311
H105       H    0.5285691512    0.0590241375    0.1764528596          0.1083
H106       H    0.5890424613    0.1767458103    0.0666052412           0.128
C63        C    0.4868108367    0.5509914884    0.9698868311          0.1888
C64        C    0.5406084623    0.5718061955    0.0204419225          -0.192
C65        C    0.5537569685    0.5225967682    0.0538329179         -0.1148
C66        C    0.5129515128    0.4525741860    0.0367651175          0.2114
C67        C    0.4583497893    0.4315911397    0.9872439338         -0.2083
C68        C    0.4453962403    0.4808469924    0.9535928535         -0.1166
C69        C    0.5271322371    0.4036370387    0.0688763688         -0.1583
C70        C    0.5814488185    0.4249047153    0.1187535567         -0.2968
C71        C    0.4750783824    0.6005044862    0.9350882361         -0.0395
C72        C    0.4241115196    0.5804115926    0.8812435011         -0.4049
H73        H    0.5709598903    0.6236860035    0.0328352054          0.1229
H74        H    0.5938176060    0.5380176170    0.0910380771          0.1192
H75        H    0.4277872475    0.3796645946    0.9751735928          0.1135
H76        H    0.4052278053    0.4653929707    0.9164968525          0.1159
H85        H    0.4977693025    0.3518908261    0.0554767819          0.1434
H86        H    0.6096812539    0.4764914509    0.1333355864          0.1311
H87        H    0.5048381881    0.6522407937    0.9484168650          0.1079
H88        H    0.3948724019    0.5287701847    0.8672690299           0.128
C45        C    0.5360774558    0.4661370547    0.4800956843          0.1888
C46        C    0.5211824016    0.4693227265    0.5536699571          -0.192
C47        C    0.4881688685    0.5062160178    0.5738475746         -0.1148
C48        C    0.4702476975    0.5400515457    0.5204182828          0.2114
C49        C    0.4862741922    0.5379550506    0.4470065311         -0.2083
C50        C    0.5190131764    0.5007891206    0.4267843097         -0.1166
C51        C    0.4358433444    0.5755555281    0.5404325941         -0.1583
C52        C    0.4204596780    0.5778911999    0.6139724312         -0.2968
C53        C    0.5672897978    0.4275986356    0.4599174353         -0.0395
C54        C    0.5784519826    0.4207598745    0.3860408546         -0.4049
H55        H    0.5342305740    0.4440367670    0.5931576377          0.1229
H56        H    0.4768219883    0.5083259351    0.6283141143          0.1192
H57        H    0.4735444691    0.5635623829    0.4075963375          0.1135
H58        H    0.5304908748    0.4988098680    0.3723169228          0.1159
H67        H    0.4214710965    0.5997090871    0.5009104896          0.1434
H68        H    0.4363556616    0.5550565210    0.6535540956          0.1311
H69        H    0.5812351001    0.4032386338    0.4996402877          0.1079
H70        H    0.5637745925    0.4444361172    0.3462258370           0.128
loop_
_geom_bond_atom_site_label_1
_geom_bond_atom_site_label_2
_geom_bond_distance
_geom_bond_site_symmetry_2
_ccdc_geom_bond_type
O1          C16 1.264       .   A
O1          Al9 1.910       .   S
C2          O12 1.307       .   A
C2           O3 1.213       .   A
C2          C52 1.633       .   S
O3          Al5 1.923       .   S
O4          Al5 1.887       .   S
O4           C6 1.257       .   A
Al5         O13 1.841       .   S
Al5         O14 1.849       .   S
Al5         O15 1.925       .   S
C6          O19 1.234       .   A
C6         C108 1.547       .   S
O7          Al9 1.883       .   S
O7          C17 1.279       .   A
O8         Al18 1.915       .   S
O8          C21 1.267       .   A
Al9         O14 1.814       .   S
Al9         O22 1.873       .   S
Al9         O19 1.904       .   S
O10        Al18 1.918       .   S
O10         C17 1.246       .   A
O11         C20 1.236       .   A
O11        Al18 1.930       .   S
O12        Al18 1.868       .   S
O13         C20 1.281       .   A
O14        Al18 1.829       .   S
O15         C16 1.232       .   A
C16         C88 1.546       .   S
C17        C124 1.584       .   S
C20         C72 1.402       .   S
C21         O22 1.287       .   A
C21        C142 1.527       .   S
O23         C38 1.264       .   A
O23        Al31 1.910       .   S
C24         O34 1.307       .   A
C24         O25 1.213       .   A
C24         C54 1.633       .   S
O25        Al27 1.923       .   S
O26        Al27 1.887       .   S
O26         C28 1.257       .   A
Al27        O35 1.841       .   S
Al27        O36 1.849       .   S
Al27        O37 1.925       .   S
C28         O41 1.234       .   A
C28        C126 1.584   1_655   S
O29        Al31 1.883       .   S
O29         C39 1.279       .   A
O30        Al40 1.915       .   S
O30         C43 1.267       .   A
Al31        O36 1.814       .   S
Al31        O44 1.873       .   S
Al31        O41 1.904       .   S
O32        Al40 1.918       .   S
O32         C39 1.246       .   A
O33         C42 1.236       .   A
O33        Al40 1.930       .   S
O34        Al40 1.868       .   S
O35         C42 1.281       .   A
O36        Al40 1.829       .   S
O37         C38 1.232       .   A
C38        C144 1.527   1_654   S
C39        C106 1.547   1_545   S
C42         C70 1.402   1_554   S
C43         O44 1.287       .   A
C43         C90 1.546   1_544   S
C143       C135 1.538       .   S
C136       C135 1.539       .   A
C135       C140 1.540       .   A
H145       C136 1.140       .   S
C137       C136 1.539       .   A
H146       C137 1.140       .   S
C137       C138 1.540       .   A
C141       C138 1.538       .   S
C139       C138 1.539       .   A
H147       C139 1.140       .   S
C140       C139 1.540       .   A
H148       C140 1.141       .   S
H157       C141 1.140       .   S
C142       C141 1.538       .   D
C142       H158 1.140       .   S
H159       C143 1.140       .   S
C143       C144 1.539       .   D
H160       C144 1.141       .   S
C125       C117 1.538       .   S
C118       C117 1.539       .   A
C117       C122 1.540       .   A
H127       C118 1.140       .   S
C119       C118 1.539       .   A
H128       C119 1.140       .   S
C119       C120 1.540       .   A
C123       C120 1.538       .   S
C121       C120 1.539       .   A
H129       C121 1.140       .   S
C122       C121 1.540       .   A
H130       C122 1.141       .   S
H139       C123 1.140       .   S
C124       C123 1.538       .   D
C124       H140 1.140       .   S
H141       C125 1.140       .   S
C125       C126 1.539       .   D
H142       C126 1.141       .   S
C107        C99 1.538       .   S
C100        C99 1.539       .   A
C99        C104 1.540       .   A
H109       C100 1.140       .   S
C101       C100 1.539       .   A
H110       C101 1.140       .   S
C101       C102 1.540       .   A
C105       C102 1.538       .   S
C103       C102 1.539       .   A
H111       C103 1.140       .   S
C104       C103 1.540       .   A
H112       C104 1.141       .   S
H121       C105 1.140       .   S
C106       C105 1.538       .   D
C106       H122 1.140       .   S
H123       C107 1.140       .   S
C107       C108 1.539       .   D
H124       C108 1.141       .   S
C89         C81 1.538       .   S
C82         C81 1.539       .   A
C81         C86 1.540       .   A
H91         C82 1.140       .   S
C83         C82 1.539       .   A
H92         C83 1.140       .   S
C83         C84 1.540       .   A
C87         C84 1.538       .   S
C85         C84 1.539       .   A
H93         C85 1.140       .   S
C86         C85 1.540       .   A
H94         C86 1.141       .   S
H103        C87 1.140       .   S
C88         C87 1.538       .   D
C88        H104 1.140       .   S
H105        C89 1.140       .   S
C89         C90 1.539       .   D
H106        C90 1.141       .   S
C71         C63 1.538       .   S
C64         C63 1.539       .   A
C63         C68 1.540       .   A
H73         C64 1.140       .   S
C65         C64 1.539       .   A
H74         C65 1.140       .   S
C65         C66 1.540       .   A
C69         C66 1.538       .   S
C67         C66 1.539       .   A
H75         C67 1.140       .   S
C68         C67 1.540       .   A
H76         C68 1.141       .   S
H85         C69 1.140       .   S
C70         C69 1.538       .   D
C70         H86 1.140       .   S
H87         C71 1.140       .   S
C71         C72 1.539       .   D
H88         C72 1.141       .   S
C53         C45 1.538       .   S
C46         C45 1.539       .   A
C45         C50 1.540       .   A
H55         C46 1.140       .   S
C47         C46 1.539       .   A
H56         C47 1.140       .   S
C47         C48 1.540       .   A
C51         C48 1.538       .   S
C49         C48 1.539       .   A
H57         C49 1.140       .   S
C50         C49 1.540       .   A
H58         C50 1.141       .   S
H67         C51 1.140       .   S
C52         C51 1.538       .   D
C52         H68 1.140       .   S
H69         C53 1.140       .   S
C53         C54 1.539       .   D
H70         C54 1.141       .   S
