data_acs_v1-6c_Al_1_Ch_1-1B_2furan_Ch
_audit_creation_date              2021-04-19
_audit_creation_method            'tobacco_3.0'
_symmetry_space_group_name_H-M    'P1'
_symmetry_Int_Tables_number       1
_symmetry_cell_setting            triclinic
loop_
_symmetry_equiv_pos_as_xyz
  x,y,z
_cell_length_a                    23.29919855185206
_cell_length_b                    23.225057951912483
_cell_length_c                    19.098472825913657
_cell_angle_alpha                 89.4345935224457
_cell_angle_beta                  90.33992657249992
_cell_angle_gamma                 119.57257910799302
loop_
_atom_site_label
_atom_site_type_symbol
_atom_site_fract_x
_atom_site_fract_y
_atom_site_fract_z
_atom_site_charge
O1         O    0.3335721914    0.7671716688    0.8251459200         -0.8176
C2         C    0.3917208692    0.6063537941    0.6548727973           0.976
O3         O    0.4325782803    0.6535700912    0.6874617932         -0.7087
O4         O    0.4335483962    0.7643668995    0.6748267078         -0.7446
Al5       Al    0.4242568932    0.7108669175    0.7536791492          1.4898
C6         C    0.3987791119    0.7895767812    0.6567141084          0.9285
O7         O    0.2366437593    0.6665259418    0.6694007876         -0.8069
O8         O    0.2327658917    0.5683418718    0.8318801628         -0.7424
Al9       Al    0.2892910580    0.7119383060    0.7469993378          1.9012
O10        O    0.2208937784    0.5644561873    0.6907837200         -0.7331
O11        O    0.3455953661    0.5640506428    0.8214441646         -0.7316
O12        O    0.3323670027    0.5660897467    0.6782037455         -0.7882
O13        O    0.4332122114    0.6655703415    0.8287727091         -0.7703
O14        O    0.3330570220    0.6655464307    0.7523501610         -1.1316
O15        O    0.4335794275    0.7791273644    0.8167306379         -0.7235
C16        C    0.3934231464    0.7924332161    0.8430611496          0.9836
C17        C    0.2096235351    0.6043941666    0.6578140844          0.9476
Al18      Al    0.2886380273    0.5750380315    0.7554267015          1.5556
O19        O    0.3456266665    0.7784533421    0.6820846234         -0.7698
C20        C    0.4004071548    0.6040384670    0.8451284284          0.9893
C21        C    0.2058461825    0.6034035750    0.8424094319          0.9381
O22        O    0.2210912970    0.6570116152    0.8081156712          -0.823
O23        O    0.7676518198    0.3340248110    0.1746195964         -0.8176
C24        C    0.6071001858    0.3922204184    0.3451402677           0.976
O25        O    0.6543071932    0.4332556940    0.3123409242         -0.7087
O26        O    0.7645951290    0.4339527205    0.3247088579         -0.7446
Al27      Al    0.7115534142    0.4249882870    0.2460058405          1.4898
C28        C    0.7895656948    0.3989231219    0.3428440224          0.9285
O29        O    0.6667302803    0.2363990633    0.3308371707         -0.8069
O30        O    0.5694720195    0.2332345658    0.1686005454         -0.7424
Al31      Al    0.7123095147    0.2894224981    0.2530041932          1.9012
O32        O    0.5651284515    0.2208684153    0.3097356117         -0.7331
O33        O    0.5654078219    0.3465215688    0.1787784910         -0.7316
O34        O    0.5669541385    0.3327738523    0.3220466088         -0.7882
O35        O    0.6667074281    0.4343190218    0.1709987123         -0.7703
O36        O    0.6662256452    0.3334916089    0.2476601540         -1.1316
O37        O    0.7797444446    0.4344065735    0.1827684611         -0.7235
C38        C    0.7929914092    0.3941346793    0.1565014506          0.9836
C39        C    0.6047676696    0.2093591617    0.3426368102          0.9476
Al40      Al    0.5760163132    0.2890862283    0.2449056791          1.5556
O41        O    0.7784562342    0.3456487075    0.3176263472         -0.7698
C42        C    0.6054186665    0.4015577490    0.1548680395          0.9893
C43        C    0.6043605152    0.2061586867    0.1580513896          0.9381
O44        O    0.6576643718    0.2212445539    0.1921809613          -0.823
C125       C    0.9347007831    0.4385751656    0.0217528192           0.298
C126       C    0.9772181799    0.4276930996    0.9677160717         -0.3653
C127       C    0.0391060495    0.4907677223    0.9419715875          0.1579
C128       C    0.0574664294    0.5600637008    0.9673672996           0.216
C129       C    0.0145663678    0.5709318043    0.0209246510         -0.3464
C130       C    0.9530650310    0.5078164694    0.0471982400           0.157
O131       O    0.8735308120    0.3869283285    0.0597985190         -0.2665
C132       C    0.8541421789    0.4251309396    0.1099791141          0.0549
C133       C    0.9025972982    0.4999662999    0.1024869101         -0.3155
O134       O    0.1224188475    0.6111515376    0.9348447437         -0.2336
C135       C    0.1446954128    0.5724073147    0.8889317684         -0.0337
C136       C    0.0935062652    0.4980023252    0.8924342019         -0.1781
H137       H    0.9643621895    0.3762434705    0.9488898359          0.2018
H138       H    0.0280272774    0.6223167376    0.0406610773          0.1856
H140       H    0.9017015968    0.5413295176    0.1333485472          0.1849
H142       H    0.0964078449    0.4563219181    0.8645364618          0.1437
C109       C    0.0364921413    0.4973952706    0.5645988759           0.298
C110       C    0.9692618855    0.4364924639    0.5476935710         -0.3653
C111       C    0.9310232409    0.4451545756    0.4861376882          0.1579
C112       C    0.9571219636    0.5098598897    0.4444619238           0.216
C113       C    0.0240916276    0.5709300463    0.4618443706         -0.3464
C114       C    0.0626236595    0.5620535458    0.5229189759           0.157
O115       O    0.0871287813    0.5035030063    0.6187713614         -0.2665
C116       C    0.1457522253    0.5731515531    0.6099217503          0.0549
C117       C    0.1311831446    0.6101185701    0.5511566792         -0.3155
O118       O    0.9096324233    0.5015797317    0.3855163475         -0.2338
C119       C    0.8534370047    0.4301657355    0.3907363565         -0.0337
C120       C    0.8657378715    0.3947973010    0.4529438366         -0.1781
H121       H    0.9495812973    0.3878251464    0.5779648046          0.2018
H122       H    0.0443032410    0.6192832093    0.4307950606          0.1856
H124       H    0.1655566774    0.6627093529    0.5315973521          0.1849
H126       H    0.8330604210    0.3410421813    0.4699667082          0.1437
C93        C    0.4538375258    0.9578765713    0.5574005616           0.298
C94        C    0.4518700394    0.0201207584    0.5322178901         -0.3653
C95        C    0.5051155979    0.0638618970    0.4784494309          0.1579
C96        C    0.5572564839    0.0475880750    0.4518141632           0.216
C97        C    0.5595445878    0.9856446964    0.4775360544         -0.3464
C98        C    0.5059011497    0.9415594527    0.5307453129           0.157
O99        O    0.4064837930    0.9034489079    0.6064687970         -0.2665
C100       C    0.4296189123    0.8524249556    0.6096916851          0.0549
C101       C    0.4912930632    0.8754839265    0.5634987360         -0.3155
O102       O    0.6004079176    0.0983395296    0.3971619514         -0.2338
C103       C    0.5739278693    0.1465109872    0.3896592336         -0.0337
C104       C    0.5153164502    0.1261071647    0.4398875979         -0.1781
H105       H    0.4128839393    0.0324345467    0.5512054352          0.2018
H106       H    0.5978717556    0.9727191024    0.4576467772          0.1856
H108       H    0.5196609309    0.8478343044    0.5544153837          0.1849
H110       H    0.4846843404    0.1517760207    0.4459983969          0.1437
C77        C    0.5062584710    0.9553653108    0.9466865830           0.298
C78        C    0.5699865085    0.0132413279    0.9766785501         -0.3653
C79        C    0.5602836343    0.0598472888    0.0260521869          0.1579
C80        C    0.4922148858    0.0503335140    0.0440889829           0.216
C81        C    0.4285522693    0.9927827366    0.0135403317         -0.3464
C82        C    0.4382149988    0.9458017512    0.9647505665           0.157
O83        O    0.4989519489    0.8993671577    0.9003587979         -0.2665
C84        C    0.4249284615    0.8542266829    0.8901076584          0.0549
C85        C    0.3867240127    0.8824943334    0.9292322939         -0.3155
O86        O    0.4990858966    0.1023350409    0.0962604385         -0.2338
C87        C    0.5728552001    0.1443652198    0.1110048808         -0.0337
C88        C    0.6113486890    0.1189873664    0.0676534827         -0.1781
H89        H    0.6209411783    0.0204813207    0.9641245640          0.2018
H90        H    0.3774901519    0.9848826026    0.0270339031          0.1856
H92        H    0.3307838454    0.8597485879    0.9322513665          0.1849
H94        H    0.6670577785    0.1395800990    0.0677471486          0.1437
C61        C    0.5369620297    0.5026067250    0.0683510237           0.298
C62        C    0.5124142531    0.5530184366    0.0609452202         -0.3653
C63        C    0.4837579850    0.5555635099    0.9887633340          0.1579
C64        C    0.4801620742    0.5117089990    0.9277160472           0.216
C65        C    0.5052948293    0.4617460735    0.9349981502         -0.3464
C66        C    0.5333210144    0.4587233877    0.0073730590           0.157
O67        O    0.5639651135    0.4856023184    0.1330638374         -0.2665
C68        C    0.5767737754    0.4298490292    0.1115901895          0.0549
C69        C    0.5584671369    0.4129589320    0.0339018212         -0.3155
O70        O    0.4467885163    0.5237757295    0.8651582059         -0.2338
C71        C    0.4290520459    0.5757471868    0.8884062783         -0.0337
C72        C    0.4519721228    0.5961963799    0.9645117882         -0.1781
H73        H    0.5142834649    0.5855261657    0.1062555815          0.2018
H74        H    0.5024046805    0.4284172032    0.8900164222          0.1856
H76        H    0.5617719476    0.3730447718    0.0027198088          0.1849
H78        H    0.4452666102    0.6334666938    0.9968679544          0.1437
C45        C    0.5603439964    0.5032396980    0.4660921704           0.298
C46        C    0.5709900532    0.5599165308    0.5152410129         -0.3653
C47        C    0.5076868244    0.5569817492    0.5432768493          0.1579
C48        C    0.4384478132    0.5020894699    0.5235607841           0.216
C49        C    0.4278693036    0.4457711900    0.4738824912         -0.3464
C50        C    0.4911543080    0.4483346437    0.4464253103           0.157
O51        O    0.6119177529    0.4900052158    0.4333916837         -0.2665
C52        C    0.5736826993    0.4254445892    0.3931972622          0.0549
C53        C    0.4989604368    0.3992860824    0.4003819877         -0.3155
O54        O    0.3868298265    0.5114838018    0.5620880042         -0.2338
C55        C    0.4251383558    0.5731296233    0.6068158027         -0.0337
C56        C    0.4998671924    0.6020481151    0.5954023562         -0.1781
H57        H    0.6223422454    0.6007509954    0.5308142238          0.2018
H58        H    0.3764847716    0.4042871712    0.4592292432          0.1856
H60        H    0.4575378565    0.3517613645    0.3770279533          0.1849
H62        H    0.5412842020    0.6475178453    0.6218659699          0.1437
loop_
_geom_bond_atom_site_label_1
_geom_bond_atom_site_label_2
_geom_bond_distance
_geom_bond_site_symmetry_2
_ccdc_geom_bond_type
O1          C16 1.264       .   A
O1          Al9 1.910       .   S
C2          O12 1.307       .   A
C2           O3 1.213       .   A
C2          C55 1.631       .   S
O3          Al5 1.923       .   S
O4          Al5 1.887       .   S
O4           C6 1.257       .   A
Al5         O13 1.841       .   S
Al5         O14 1.849       .   S
Al5         O15 1.925       .   S
C6          O19 1.234       .   A
C6         C100 1.549       .   S
O7          Al9 1.883       .   S
O7          C17 1.279       .   A
O8         Al18 1.915       .   S
O8          C21 1.267       .   A
Al9         O14 1.814       .   S
Al9         O22 1.873       .   S
Al9         O19 1.904       .   S
O10        Al18 1.918       .   S
O10         C17 1.246       .   A
O11         C20 1.236       .   A
O11        Al18 1.930       .   S
O12        Al18 1.868       .   S
O13         C20 1.281       .   A
O14        Al18 1.829       .   S
O15         C16 1.232       .   A
C16         C84 1.544       .   S
C17        C116 1.584       .   S
C20         C71 1.406       .   S
C21         O22 1.287       .   A
C21        C135 1.526       .   S
O23         C38 1.264       .   A
O23        Al31 1.910       .   S
C24         O34 1.307       .   A
C24         O25 1.213       .   A
C24         C52 1.631       .   S
O25        Al27 1.923       .   S
O26        Al27 1.887       .   S
O26         C28 1.257       .   A
Al27        O35 1.841       .   S
Al27        O36 1.849       .   S
Al27        O37 1.925       .   S
C28         O41 1.234       .   A
C28        C119 1.584   1_655   S
O29        Al31 1.883       .   S
O29         C39 1.279       .   A
O30        Al40 1.915       .   S
O30         C43 1.267       .   A
Al31        O36 1.814       .   S
Al31        O44 1.873       .   S
Al31        O41 1.904       .   S
O32        Al40 1.918       .   S
O32         C39 1.246       .   A
O33         C42 1.236       .   A
O33        Al40 1.930       .   S
O34        Al40 1.868       .   S
O35         C42 1.281       .   A
O36        Al40 1.829       .   S
O37         C38 1.232       .   A
C38        C132 1.526   1_654   S
C39        C103 1.549   1_545   S
C42         C68 1.406   1_554   S
C43         O44 1.287       .   A
C43         C87 1.544   1_544   S
C130       C125 1.529       .   A
O131       C125 1.518       .   A
C126       C125 1.541       .   A
H137       C126 1.141       .   S
C126       C127 1.541       .   A
C127       C136 1.527       .   A
C127       C128 1.530       .   A
O134       C128 1.519       .   A
C129       C128 1.541       .   A
H138       C129 1.141       .   S
C130       C129 1.541       .   A
C130       C133 1.526       .   A
O131       C132 1.526       .   A
C133       C132 1.541       .   A
H140       C133 1.141       .   S
O134       C135 1.526       .   A
C136       C135 1.542       .   A
H142       C136 1.140       .   S
C114       C109 1.529       .   A
O115       C109 1.518       .   A
C110       C109 1.541       .   A
H121       C110 1.141       .   S
C110       C111 1.541       .   A
C111       C120 1.527       .   A
C111       C112 1.530       .   A
O118       C112 1.519       .   A
C113       C112 1.541       .   A
H122       C113 1.141       .   S
C114       C113 1.541       .   A
C114       C117 1.526       .   A
O115       C116 1.526       .   A
C117       C116 1.541       .   A
H124       C117 1.141       .   S
O118       C119 1.526       .   A
C120       C119 1.542       .   A
H126       C120 1.140       .   S
C98         C93 1.529       .   A
O99         C93 1.518       .   A
C94         C93 1.541       .   A
H105        C94 1.141       .   S
C94         C95 1.541       .   A
C95        C104 1.527       .   A
C95         C96 1.530       .   A
O102        C96 1.519       .   A
C97         C96 1.541       .   A
H106        C97 1.141       .   S
C98         C97 1.541       .   A
C98        C101 1.526       .   A
O99        C100 1.526       .   A
C101       C100 1.541       .   A
H108       C101 1.141       .   S
O102       C103 1.526       .   A
C104       C103 1.542       .   A
H110       C104 1.140       .   S
C82         C77 1.529       .   A
O83         C77 1.518       .   A
C78         C77 1.541       .   A
H89         C78 1.141       .   S
C78         C79 1.541       .   A
C79         C88 1.527       .   A
C79         C80 1.530       .   A
O86         C80 1.519       .   A
C81         C80 1.541       .   A
H90         C81 1.141       .   S
C82         C81 1.541       .   A
C82         C85 1.526       .   A
O83         C84 1.526       .   A
C85         C84 1.541       .   A
H92         C85 1.141       .   S
O86         C87 1.526       .   A
C88         C87 1.542       .   A
H94         C88 1.140       .   S
C66         C61 1.529       .   A
O67         C61 1.518       .   A
C62         C61 1.541       .   A
H73         C62 1.141       .   S
C62         C63 1.541       .   A
C63         C72 1.527       .   A
C63         C64 1.530       .   A
O70         C64 1.519       .   A
C65         C64 1.541       .   A
H74         C65 1.141       .   S
C66         C65 1.541       .   A
C66         C69 1.526       .   A
O67         C68 1.526       .   A
C69         C68 1.541       .   A
H76         C69 1.141       .   S
O70         C71 1.526       .   A
C72         C71 1.542       .   A
H78         C72 1.140       .   S
C50         C45 1.529       .   A
O51         C45 1.518       .   A
C46         C45 1.541       .   A
H57         C46 1.141       .   S
C46         C47 1.541       .   A
C47         C56 1.527       .   A
C47         C48 1.530       .   A
O54         C48 1.519       .   A
C49         C48 1.541       .   A
H58         C49 1.141       .   S
C50         C49 1.541       .   A
C50         C53 1.526       .   A
O51         C52 1.526       .   A
C53         C52 1.541       .   A
H60         C53 1.141       .   S
O54         C55 1.526       .   A
C56         C55 1.542       .   A
H62         C56 1.140       .   S
