data_acs_v1-6c_Al_1_Ch_1-1B_2CH3_Ch
_audit_creation_date              2021-04-19
_audit_creation_method            'tobacco_3.0'
_symmetry_space_group_name_H-M    'P1'
_symmetry_Int_Tables_number       1
_symmetry_cell_setting            triclinic
loop_
_symmetry_equiv_pos_as_xyz
  x,y,z
_cell_length_a                    17.022391842175104
_cell_length_b                    16.971279707934297
_cell_length_c                    13.95540065220154
_cell_angle_alpha                 89.53666793447843
_cell_angle_beta                  90.28742495175226
_cell_angle_gamma                 119.55788115626268
loop_
_atom_site_label
_atom_site_type_symbol
_atom_site_fract_x
_atom_site_fract_y
_atom_site_fract_z
_atom_site_charge
O1         O    0.3336420879    0.8042530188    0.8529894553         -0.8253
C2         C    0.4132789827    0.5840261587    0.6196801983          0.9682
O3         O    0.4691854633    0.6486614977    0.6643181121         -0.7165
O4         O    0.4704819627    0.8002567452    0.6471919043         -0.7524
Al5       Al    0.4577782142    0.7271288505    0.7550305834          1.4898
C6         C    0.4228871846    0.8347385673    0.6224690945          0.9208
O7         O    0.2010105184    0.6663936272    0.6397726393         -0.8146
O8         O    0.1957270240    0.5322040211    0.8619858088         -0.7502
Al9       Al    0.2730530117    0.7286033550    0.7459954461          1.9012
O10        O    0.1794824125    0.5267501743    0.6688950489         -0.7409
O11        O    0.3501559602    0.5263093755    0.8476098729         -0.7394
O12        O    0.3320534388    0.5289607056    0.6515949544          -0.796
O13        O    0.4700462798    0.6652202929    0.8577232632          -0.778
O14        O    0.3329677129    0.6651238542    0.7532147168         -1.1394
O15        O    0.4705168009    0.8205931012    0.8414132138         -0.7313
C16        C    0.4155512678    0.8388302996    0.8774983053          0.9759
C17        C    0.1640464654    0.5813678742    0.6238438244          0.9398
Al18      Al    0.2721980434    0.5412855261    0.7573239246          1.5556
O19        O    0.3501410465    0.8195486897    0.6572138940         -0.7775
C20        C    0.4251637959    0.5810434268    0.8800397692          0.9815
C21        C    0.1588723036    0.5801936734    0.8764688083          0.9303
O22        O    0.1797235353    0.6535124191    0.8296053839         -0.8307
O23        O    0.8046482380    0.3341729443    0.1467613007         -0.8253
C24        C    0.5848847772    0.4139911803    0.3803345593          0.9682
O25        O    0.6494850596    0.4701036691    0.3354722401         -0.7165
O26        O    0.8004333994    0.4710571275    0.3523134827         -0.7524
Al27      Al    0.7278404032    0.4587189681    0.2446342000          1.4898
C28        C    0.8346196359    0.4231397597    0.3770603903          0.9208
O29        O    0.6665435749    0.2007534437    0.3604821348         -0.8146
O30        O    0.5334323260    0.1962740470    0.1385279078         -0.7502
Al31      Al    0.7289134556    0.2732255065    0.2540092288          1.9012
O32        O    0.5274880933    0.1794929070    0.3316598727         -0.7409
O33        O    0.5278375118    0.3512998729    0.1526284921         -0.7394
O34        O    0.5299549891    0.3326297176    0.3486729634          -0.796
O35        O    0.6664594829    0.4714175675    0.1420337093          -0.778
O36        O    0.6658270763    0.3335270550    0.2467971582         -1.1394
O37        O    0.8211706159    0.4715361526    0.1580532785         -0.7313
C38        C    0.8393133622    0.4164029842    0.1220359560          0.9759
C39        C    0.5817440647    0.1637723287    0.3766381055          0.9398
Al40      Al    0.5423720687    0.2727728616    0.2430315266          1.5556
O41        O    0.8194299104    0.3502185088    0.3424786657         -0.7775
C42        C    0.5825844234    0.4265799831    0.1199572822          0.9815
C43        C    0.5811913405    0.1592106076    0.1240237182          0.9303
O44        O    0.6541422715    0.1798808971    0.1707119927         -0.8307
C125       C    0.9886022667    0.5039180693    0.9022295067         -0.2104
C126       C    0.0757452072    0.5375866841    0.9403483664         -0.0761
C127       C    0.0877104972    0.5323093940    0.0401618648          0.1326
C128       C    0.0095833991    0.4926785884    0.0962752576         -0.2109
C129       C    0.9224404586    0.4590099736    0.0581563980         -0.0761
C130       C    0.9104751686    0.4642872637    0.9583428995          0.1325
C131       C    0.8200276763    0.4302944130    0.9097724356         -0.2444
H132       H    0.9816468913    0.5089397737    0.8255088977          0.1454
H133       H    0.0165387744    0.4876568840    0.1729958666          0.1457
C134       C    0.1781467789    0.5663124601    0.0887218026         -0.2439
H135       H    0.8295660555    0.4425036552    0.8324681778          0.0478
H136       H    0.7839597010    0.4638922294    0.9370763968            0.08
H137       H    0.7755027705    0.3577319472    0.9222906577            0.08
H138       H    0.2226364012    0.6388713169    0.0762379010          0.0799
H139       H    0.2142327041    0.5327461469    0.0614070198          0.0799
H140       H    0.1686168473    0.5540802677    0.1660343084          0.0476
C109       C    0.0018857717    0.5424810678    0.4138486693         -0.2104
C110       C    0.9219285028    0.4650753768    0.4424660588         -0.0761
C111       C    0.9181856793    0.4228222910    0.5314858684          0.1326
C112       C    0.9967803296    0.4620265660    0.5870555455         -0.2109
C113       C    0.0767375985    0.5394322570    0.5584381559         -0.0761
C114       C    0.0804804220    0.5816853428    0.4694183464          0.1325
C115       C    0.1627847690    0.6650323206    0.4316067903         -0.2444
H116       H    0.0026294810    0.5732970350    0.3452806839          0.1454
H117       H    0.9960366203    0.4312105988    0.6556235309          0.1457
C118       C    0.8358969309    0.3394794408    0.5692795020         -0.2439
H119       H    0.1477976054    0.6838058560    0.3614400728          0.0478
H120       H    0.2205851922    0.6539175108    0.4242838034            0.08
H121       H    0.1846884897    0.7226137326    0.4799859672            0.08
H122       H    0.8140356569    0.2819043197    0.5209234808          0.0799
H123       H    0.7780879126    0.3505720590    0.5765767070          0.0799
H124       H    0.8508661032    0.3207110963    0.6394700216          0.0476
C93        C    0.5532552141    0.9922709833    0.5722774511         -0.2104
C94        C    0.4647422951    0.9214313465    0.5576983198         -0.0761
C95        C    0.4113704705    0.9275755312    0.4830780695          0.1326
C96        C    0.4513760352    0.0062399127    0.4268297489         -0.2109
C97        C    0.5398889543    0.0770795495    0.4414088802         -0.0761
C98        C    0.5932607788    0.0709353649    0.5160291305          0.1325
C99        C    0.6890525742    0.1429553712    0.5380843442         -0.2444
H100       H    0.5924302522    0.9855597167    0.6300085332           0.146
H101       H    0.4122009971    0.0129511793    0.3690986668          0.1457
C102       C    0.3155888810    0.8555712862    0.4610409077         -0.2439
H103       H    0.7148735417    0.1215267717    0.5990425883          0.0478
H104       H    0.6933737691    0.2078096689    0.5552583689            0.08
H105       H    0.7338643729    0.1562315521    0.4767772768            0.08
H106       H    0.2707872748    0.8423404208    0.5223286175          0.0799
H107       H    0.3112517092    0.7907115622    0.4438974307          0.0799
H108       H    0.2897640445    0.8769797845    0.4000558870          0.0476
C77        C    0.5835445152    0.0282862944    0.0366998228         -0.2104
C78        C    0.5379564537    0.0755858775    0.0596763766         -0.0761
C79        C    0.4501605060    0.0463071591    0.0232306524          0.1326
C80        C    0.4131980931    0.9697546128    0.9648222007         -0.2109
C81        C    0.4587861546    0.9224550297    0.9418456468         -0.0761
C82        C    0.5465821023    0.9517337481    0.9782913711          0.1325
C83        C    0.6016687120    0.9060534193    0.9582051200         -0.2444
H84        H    0.6506986528    0.0523764502    0.0657182094          0.1454
H85        H    0.3460439554    0.9456644570    0.9358038140          0.1457
C86        C    0.3950927371    0.0919927763    0.0433030931         -0.2439
H87        H    0.6669165547    0.9420448703    0.9948388207          0.0478
H88        H    0.6137065495    0.9046577435    0.8814096464            0.08
H89        H    0.5670885035    0.8353296188    0.9822865120            0.08
H90        H    0.4296573813    0.1626886967    0.0191771525          0.0799
H91        H    0.3830747773    0.0934202383    0.1200897192          0.0799
H92        H    0.3298215610    0.0559871385    0.0066940686          0.0476
C61        C    0.4832522093    0.5660211149    0.0373902942         -0.2104
C62        C    0.4648274940    0.5421248206    0.9404893809         -0.0761
C63        C    0.4856648708    0.4781311984    0.9008610994          0.1326
C64        C    0.5244960100    0.4416022950    0.9626067572         -0.2109
C65        C    0.5429207253    0.4654985892    0.0595076705         -0.0761
C66        C    0.5220833485    0.5294922115    0.0991359520          0.1325
C67        C    0.5389916963    0.5600849945    0.2022162688         -0.2444
H68        H    0.4665161429    0.6152207713    0.0656310295          0.1454
H69        H    0.5412320764    0.3924026385    0.9343660220          0.1457
C70        C    0.4687718055    0.4475581020    0.7977923367         -0.2439
H71        H    0.5168402605    0.6097665266    0.2142870282          0.0478
H72        H    0.6105825891    0.5908034555    0.2210986647            0.08
H73        H    0.5030218895    0.5033037071    0.2520506689            0.08
H74        H    0.5047769703    0.5043313158    0.7479806208          0.0799
H75        H    0.3971956729    0.4168677721    0.7788911656          0.0799
H76        H    0.4908962102    0.3978473541    0.7857154833          0.0476
C45        C    0.5255492491    0.5207692559    0.5936960309         -0.2104
C46        C    0.4592987412    0.5384276480    0.5554945538         -0.0761
C47        C    0.4312784878    0.5164085233    0.4590920940          0.1326
C48        C    0.4726145108    0.4772480830    0.4063187266         -0.2109
C49        C    0.5388650187    0.4595896909    0.4445202037         -0.0761
C50        C    0.5668852722    0.4816088156    0.5409226635          0.1325
C51        C    0.6374587521    0.4656186372    0.5892509283         -0.2444
H52        H    0.5455757404    0.5383981830    0.6677578780          0.1454
H53        H    0.4525880195    0.4596191559    0.3322568795          0.1457
C54        C    0.3607270992    0.5324124894    0.4107712232         -0.2439
H55        H    0.6465050116    0.4886039252    0.6635988740          0.0478
H56        H    0.7026551319    0.5016342302    0.5525810623            0.08
H57        H    0.6185403463    0.3939022577    0.5888849341            0.08
H58        H    0.3796759529    0.6041247985    0.4111015234          0.0799
H59        H    0.2955409688    0.4964290228    0.4474464562          0.0799
H60        H    0.3516505619    0.5094008043    0.3364206059          0.0476
loop_
_geom_bond_atom_site_label_1
_geom_bond_atom_site_label_2
_geom_bond_distance
_geom_bond_site_symmetry_2
_ccdc_geom_bond_type
O1          C16 1.264       .   A
O1          Al9 1.910       .   S
C2          O12 1.307       .   A
C2           O3 1.213       .   A
C2          C46 1.622       .   S
O3          Al5 1.923       .   S
O4          Al5 1.887       .   S
O4           C6 1.257       .   A
Al5         O13 1.841       .   S
Al5         O14 1.849       .   S
Al5         O15 1.925       .   S
C6          O19 1.234       .   A
C6          C94 1.562       .   S
O7          Al9 1.883       .   S
O7          C17 1.279       .   A
O8         Al18 1.915       .   S
O8          C21 1.267       .   A
Al9         O14 1.814       .   S
Al9         O22 1.873       .   S
Al9         O19 1.904       .   S
O10        Al18 1.918       .   S
O10         C17 1.246       .   A
O11         C20 1.236       .   A
O11        Al18 1.930       .   S
O12        Al18 1.868       .   S
O13         C20 1.281       .   A
O14        Al18 1.829       .   S
O15         C16 1.232       .   A
C16         C81 1.532       .   S
C17        C113 1.582       .   S
C20         C62 1.424       .   S
C21         O22 1.287       .   A
C21        C126 1.521       .   S
O23         C38 1.264       .   A
O23        Al31 1.910       .   S
C24         O34 1.307       .   A
C24         O25 1.213       .   A
C24         C49 1.622       .   S
O25        Al27 1.923       .   S
O26        Al27 1.887       .   S
O26         C28 1.257       .   A
Al27        O35 1.841       .   S
Al27        O36 1.849       .   S
Al27        O37 1.925       .   S
C28         O41 1.234       .   A
C28        C110 1.582   1_655   S
O29        Al31 1.883       .   S
O29         C39 1.279       .   A
O30        Al40 1.915       .   S
O30         C43 1.267       .   A
Al31        O36 1.814       .   S
Al31        O44 1.873       .   S
Al31        O41 1.904       .   S
O32        Al40 1.918       .   S
O32         C39 1.246       .   A
O33         C42 1.236       .   A
O33        Al40 1.930       .   S
O34        Al40 1.868       .   S
O35         C42 1.281       .   A
O36        Al40 1.829       .   S
O37         C38 1.232       .   A
C38        C129 1.521   1_654   S
C39         C97 1.562   1_545   S
C42         C65 1.424   1_554   S
C43         O44 1.287       .   A
C43         C78 1.532   1_544   S
C125       C126 1.404       .   A
C125       C130 1.398       .   A
C125       H132 1.084       .   S
C126       C127 1.415       .   A
C127       C128 1.398       .   A
C127       C134 1.510       .   S
C128       C129 1.404       .   A
C128       H133 1.084       .   S
C129       C130 1.415       .   A
C130       C131 1.511       .   S
C131       H135 1.095       .   S
C131       H136 1.095       .   S
C131       H137 1.095       .   S
C134       H138 1.095       .   S
C134       H139 1.095       .   S
C134       H140 1.095       .   S
C109       C110 1.404       .   A
C109       C114 1.398       .   A
C109       H116 1.084       .   S
C110       C111 1.415       .   A
C111       C112 1.398       .   A
C111       C118 1.510       .   S
C112       C113 1.404       .   A
C112       H117 1.084       .   S
C113       C114 1.415       .   A
C114       C115 1.511       .   S
C115       H119 1.095       .   S
C115       H120 1.095       .   S
C115       H121 1.095       .   S
C118       H122 1.095       .   S
C118       H123 1.095       .   S
C118       H124 1.095       .   S
C93         C94 1.404       .   A
C93         C98 1.398       .   A
C93        H100 1.084       .   S
C94         C95 1.415       .   A
C95         C96 1.398       .   A
C95        C102 1.510       .   S
C96         C97 1.404       .   A
C96        H101 1.084       .   S
C97         C98 1.415       .   A
C98         C99 1.511       .   S
C99        H103 1.095       .   S
C99        H104 1.095       .   S
C99        H105 1.095       .   S
C102       H106 1.095       .   S
C102       H107 1.095       .   S
C102       H108 1.095       .   S
C77         C78 1.404       .   A
C77         C82 1.398       .   A
C77         H84 1.084       .   S
C78         C79 1.415       .   A
C79         C80 1.398       .   A
C79         C86 1.510       .   S
C80         C81 1.404       .   A
C80         H85 1.084       .   S
C81         C82 1.415       .   A
C82         C83 1.511       .   S
C83         H87 1.095       .   S
C83         H88 1.095       .   S
C83         H89 1.095       .   S
C86         H90 1.095       .   S
C86         H91 1.095       .   S
C86         H92 1.095       .   S
C61         C62 1.404       .   A
C61         C66 1.398       .   A
C61         H68 1.084       .   S
C62         C63 1.415       .   A
C63         C64 1.398       .   A
C63         C70 1.510       .   S
C64         C65 1.404       .   A
C64         H69 1.084       .   S
C65         C66 1.415       .   A
C66         C67 1.511       .   S
C67         H71 1.095       .   S
C67         H72 1.095       .   S
C67         H73 1.095       .   S
C70         H74 1.095       .   S
C70         H75 1.095       .   S
C70         H76 1.095       .   S
C45         C46 1.404       .   A
C45         C50 1.398       .   A
C45         H52 1.084       .   S
C46         C47 1.415       .   A
C47         C48 1.398       .   A
C47         C54 1.510       .   S
C48         C49 1.404       .   A
C48         H53 1.084       .   S
C49         C50 1.415       .   A
C50         C51 1.511       .   S
C51         H55 1.095       .   S
C51         H56 1.095       .   S
C51         H57 1.095       .   S
C54         H58 1.095       .   S
C54         H59 1.095       .   S
C54         H60 1.095       .   S
