data_acs_v1-6c_Al_1_Ch_1-1B_2TrU
_audit_creation_date              2021-04-19
_audit_creation_method            'tobacco_3.0'
_symmetry_space_group_name_H-M    'P1'
_symmetry_Int_Tables_number       1
_symmetry_cell_setting            triclinic
loop_
_symmetry_equiv_pos_as_xyz
  x,y,z
_cell_length_a                    26.09455288083553
_cell_length_b                    26.010128516425862
_cell_length_c                    21.388865739951353
_cell_angle_alpha                 89.40486082416383
_cell_angle_beta                  90.35530220898761
_cell_angle_gamma                 119.57692220992958
loop_
_atom_site_label
_atom_site_type_symbol
_atom_site_fract_x
_atom_site_fract_y
_atom_site_fract_z
_atom_site_charge
O1         O    0.3335489571    0.7564025420    0.8170706476         -1.5112
C2         C    0.3854594236    0.6128325797    0.6650849626          0.2824
O3         O    0.4219432482    0.6549893352    0.6941769071         -1.4024
O4         O    0.4228154808    0.7539280748    0.6828633963         -1.4383
Al5       Al    0.4145166879    0.7061402383    0.7532860903          1.4898
C6         C    0.3917717262    0.7764419497    0.6666779808          0.2349
O7         O    0.2469964547    0.6665575048    0.6780171575         -1.5005
O8         O    0.2435294077    0.5788534376    0.8231254499         -1.4361
Al9       Al    0.2940074550    0.7070953167    0.7473012468          1.9012
O10        O    0.2329279970    0.5754096769    0.6971371106         -1.4267
O11        O    0.3442731021    0.5750259039    0.8138248981         -1.4253
O12        O    0.3324610278    0.5768730719    0.6859202736         -1.4819
O13        O    0.4225106783    0.6656787457    0.8203527771         -1.4639
O14        O    0.3330829969    0.6656694746    0.7520987957         -1.8252
O15        O    0.4228447443    0.7670821049    0.8095679045         -1.4172
C16        C    0.3869905879    0.7789578625    0.8330691754            0.29
C17        C    0.2228669659    0.6110783144    0.6676848561           0.254
Al18      Al    0.2934168858    0.5848481909    0.7548650828          1.5556
O19        O    0.3443121131    0.7665033954    0.6893270815         -1.4634
C20        C    0.3932161665    0.6107299222    0.8349697655          0.2956
C21        C    0.2194951298    0.6101593715    0.8325132597          0.2444
O22        O    0.2331100654    0.6580355429    0.8018787073         -1.5166
O23        O    0.7569032418    0.3339729072    0.1827066197         -1.5112
C24        C    0.6135526430    0.3859033981    0.3349274810          0.2824
O25        O    0.6557052776    0.4225531441    0.3056357167         -1.4024
O26        O    0.7541800725    0.4231756263    0.3166954390         -1.4383
Al27      Al    0.7068189617    0.4151844167    0.2464146928          1.4898
C28        C    0.7764741433    0.3918929811    0.3329022857          0.2349
O29        O    0.6667870353    0.2467662226    0.3222089062         -1.5005
O30        O    0.5799454795    0.2439687886    0.1773312197         -1.4361
Al31      Al    0.7074867084    0.2941292405    0.2527021234          1.9012
O32        O    0.5760671077    0.2328998391    0.3033562496         -1.4267
O33        O    0.5763228347    0.3451267633    0.1863866443         -1.4253
O34        O    0.5777034003    0.3328238679    0.3143175808         -1.4819
O35        O    0.6667767278    0.4235294173    0.1794301153         -1.4639
O36        O    0.6663413853    0.3334808896    0.2479110258         -1.8252
O37        O    0.7677061062    0.4236078389    0.1899562872         -1.4148
C38        C    0.7795318407    0.3876521417    0.1665153348            0.29
C39        C    0.6114599806    0.2226173059    0.3327434887           0.254
Al40      Al    0.5857921790    0.2938275331    0.2454506877          1.5556
O41        O    0.7665516289    0.3443259198    0.3103983712         -1.4634
C42        C    0.6120509096    0.3942768367    0.1650269113          0.2956
C43        C    0.6110954524    0.2197940346    0.1679245137          0.2444
O44        O    0.6586907645    0.2332597605    0.1984030924         -1.5166
C115       C    0.9445297695    0.4708179174    0.0413461654          0.3038
C116       C    0.9660572278    0.5324566059    0.0121142389          0.3038
C117       C    0.0211535949    0.5603885029    0.9702683111          0.3038
C118       C    0.0546109633    0.5266779518    0.9577488735          0.3038
C119       C    0.0331345000    0.4650871288    0.9869132379          0.3038
C120       C    0.9780343815    0.4370911955    0.0287661238          0.3038
C121       C    0.8894298143    0.4429711211    0.0832076984          0.3038
C122       C    0.8342545839    0.4153276463    0.1249720737          0.3038
C123       C    0.1096634019    0.5546083580    0.9159193878          0.3038
C124       C    0.1647723866    0.5824838669    0.8740565208          0.3038
H125       H    0.9412301075    0.5573917604    0.0215202796          0.3038
H126       H    0.0372467502    0.6060380086    0.9486435850          0.3038
H127       H    0.0580377168    0.4402291355    0.9775094765          0.3038
H128       H    0.9620482473    0.3914666435    0.0503868601          0.3038
C101       C    0.0548006146    0.5284969728    0.5420571215          0.3038
C102       C    0.0607303418    0.5396342654    0.4709380106          0.3038
C103       C    0.0053791657    0.5124682374    0.4293257072          0.3038
C104       C    0.9442494211    0.4742321242    0.4588675649          0.3038
C105       C    0.9382700019    0.4630895468    0.5299164599          0.3038
C106       C    0.9935859597    0.4902360123    0.5715948324          0.3038
C107       C    0.1102182859    0.5556863720    0.5835900015          0.3038
C108       C    0.1658010714    0.5830581347    0.6248869753          0.3038
C109       C    0.8889484443    0.4471018869    0.4172620106          0.3038
C110       C    0.8335400377    0.4199131608    0.3757001665          0.3038
H111       H    0.1060913401    0.5679303289    0.4491352542          0.3038
H112       H    0.0096321008    0.5205566191    0.3766643908          0.3038
H113       H    0.8928848418    0.4347411817    0.5516437479          0.3038
H114       H    0.9892409065    0.4820509806    0.6242307363          0.3038
C87        C    0.4742930966    0.9440568522    0.5416525949          0.3038
C88        C    0.4706491664    0.9380006679    0.4699961385          0.3038
C89        C    0.4980736377    0.9936975853    0.4282089227          0.3038
C90        C    0.5290519657    0.0553001874    0.4581154655          0.3038
C91        C    0.5327346475    0.0614046398    0.5296989558          0.3038
C92        C    0.5053357400    0.0057424189    0.5715516297          0.3038
C93        C    0.4468127563    0.8882954209    0.5833631817          0.3038
C94        C    0.4193050220    0.8323606336    0.6248263252          0.3038
C95        C    0.5564585097    0.1109457058    0.4163337512          0.3038
C96        C    0.5839266848    0.1666986220    0.3745951442          0.3038
H97        H    0.4476035294    0.8922959087    0.4479333234          0.3038
H98        H    0.4953707759    0.9893606755    0.3751620842          0.3038
H99        H    0.5557483131    0.1071387411    0.5516928740          0.3038
H100       H    0.5080412583    0.0101771696    0.6245801544          0.3038
C73        C    0.4708651089    0.9444894349    0.9586894680          0.3038
C74        C    0.5305590542    0.9634882811    0.9906318771          0.3038
C75        C    0.5585902880    0.0184978243    0.0324418214          0.3038
C76        C    0.5269225281    0.0543946645    0.0422177350          0.3038
C77        C    0.4672747034    0.0354455465    0.0103440034          0.3038
C78        C    0.4391813662    0.9804352615    0.9685237490          0.3038
C79        C    0.4429170381    0.8894721907    0.9168686401          0.3038
C80        C    0.4151588047    0.8343674980    0.8751578546          0.3038
C81        C    0.5549508904    0.1093592745    0.0840123652          0.3038
C82        C    0.5829272356    0.1643843991    0.1258358344          0.3038
H83        H    0.5539854907    0.9368552993    0.9832575253          0.3038
H84        H    0.6028077594    0.0327223282    0.0560699176          0.3038
H85        H    0.4439269906    0.0621529198    0.0177181998          0.3038
H86        H    0.3949931205    0.9663193634    0.9448981002          0.3038
C59        C    0.4746234711    0.5299457054    0.9575740313          0.3038
C60        C    0.4945633953    0.5533975106    0.0242352934          0.3038
C61        C    0.5225768915    0.5257486678    0.0665328600          0.3038
C62        C    0.5305816284    0.4747314730    0.0421321642          0.3038
C63        C    0.5106930071    0.4512771062    0.9755353492          0.3038
C64        C    0.4826773676    0.4788899713    0.9331752698          0.3038
C65        C    0.4465912709    0.5576427683    0.9153542917          0.3038
C66        C    0.4186495389    0.5855733504    0.8733296081          0.3038
C67        C    0.5585872321    0.4471227974    0.0844183189          0.3038
C68        C    0.5866175372    0.4194334085    0.1266670687          0.3038
H69        H    0.4885209035    0.5911674138    0.0422483957          0.3038
H70        H    0.5372972139    0.5429486509    0.1159239294          0.3038
H71        H    0.5167164784    0.4134705268    0.9576081526          0.3038
H72        H    0.4679417308    0.4615919575    0.8838267551          0.3038
C45        C    0.4715656174    0.5275128852    0.5403642561          0.3038
C46        C    0.4656237090    0.4675745938    0.5595201140          0.3038
C47        C    0.4936780893    0.4395775305    0.5189289511          0.3038
C48        C    0.5275807512    0.4715234742    0.4592964491          0.3038
C49        C    0.5335605209    0.5314155602    0.4401223106          0.3038
C50        C    0.5055345923    0.5594750380    0.4806754011          0.3038
C51        C    0.4434515231    0.5554263484    0.5810119074          0.3038
C52        C    0.4152955847    0.5831486828    0.6218980944          0.3038
C53        C    0.5556154749    0.4435291474    0.4187540447          0.3038
C54        C    0.5837164819    0.4155872950    0.3781143492          0.3038
H55        H    0.4404135881    0.4439421544    0.6036985870          0.3038
H56        H    0.4892807669    0.3951795989    0.5329318341          0.3038
H57        H    0.5587387157    0.5549691406    0.3959021022          0.3038
H58        H    0.5099383745    0.6038439726    0.4665611418          0.3038
loop_
_geom_bond_atom_site_label_1
_geom_bond_atom_site_label_2
_geom_bond_distance
_geom_bond_site_symmetry_2
_ccdc_geom_bond_type
O1          C16 1.264       .   A
O1          Al9 1.910       .   S
C2          O12 1.307       .   A
C2           O3 1.213       .   A
C2          C52 1.635       .   S
O3          Al5 1.923       .   S
O4          Al5 1.887       .   S
O4           C6 1.257       .   A
Al5         O13 1.841       .   S
Al5         O14 1.849       .   S
Al5         O15 1.925       .   S
C6          O19 1.234       .   A
C6          C94 1.543       .   S
O7          Al9 1.883       .   S
O7          C17 1.279       .   A
O8         Al18 1.915       .   S
O8          C21 1.267       .   A
Al9         O14 1.814       .   S
Al9         O22 1.873       .   S
Al9         O19 1.904       .   S
O10        Al18 1.918       .   S
O10         C17 1.246       .   A
O11         C20 1.236       .   A
O11        Al18 1.930       .   S
O12        Al18 1.868       .   S
O13         C20 1.281       .   A
O14        Al18 1.829       .   S
O15         C16 1.232       .   A
C16         C80 1.549       .   S
C17        C108 1.585       .   S
C20         C66 1.397       .   S
C21         O22 1.287       .   A
C21        C124 1.528       .   S
O23         C38 1.264       .   A
O23        Al31 1.910       .   S
C24         O34 1.307       .   A
C24         O25 1.213       .   A
C24         C54 1.635       .   S
O25        Al27 1.923       .   S
O26        Al27 1.887       .   S
O26         C28 1.257       .   A
Al27        O35 1.841       .   S
Al27        O36 1.849       .   S
Al27        O37 1.925       .   S
C28         O41 1.234       .   A
C28        C110 1.585   1_655   S
O29        Al31 1.883       .   S
O29         C39 1.279       .   A
O30        Al40 1.915       .   S
O30         C43 1.267       .   A
Al31        O36 1.814       .   S
Al31        O44 1.873       .   S
Al31        O41 1.904       .   S
O32        Al40 1.918       .   S
O32         C39 1.246       .   A
O33         C42 1.236       .   A
O33        Al40 1.930       .   S
O34        Al40 1.868       .   S
O35         C42 1.281       .   A
O36        Al40 1.829       .   S
O37         C38 1.232       .   A
C38        C122 1.528   1_654   S
C39         C96 1.543   1_545   S
C42         C68 1.397   1_554   S
C43         O44 1.287       .   A
C43         C82 1.549   1_544   S
C115       C116 1.540       .   A
C115       C120 1.540       .   A
C115       C121 1.539       .   S
C116       C117 1.539       .   A
C116       H125 1.140       .   S
C117       C118 1.538       .   A
C117       H126 1.140       .   S
C118       C119 1.538       .   A
C118       C123 1.538       .   S
C119       C120 1.539       .   A
C119       H127 1.140       .   S
C120       H128 1.139       .   S
C121       C122 1.539       .   T
C123       C124 1.539       .   T
C101       C102 1.540       .   A
C101       C106 1.540       .   A
C101       C107 1.539       .   S
C102       C103 1.539       .   A
C102       H111 1.140       .   S
C103       C104 1.538       .   A
C103       H112 1.140       .   S
C104       C105 1.538       .   A
C104       C109 1.538       .   S
C105       C106 1.539       .   A
C105       H113 1.140       .   S
C106       H114 1.139       .   S
C107       C108 1.539       .   T
C109       C110 1.539       .   T
C87         C88 1.540       .   A
C87         C92 1.540       .   A
C87         C93 1.539       .   S
C88         C89 1.539       .   A
C88         H97 1.140       .   S
C89         C90 1.538       .   A
C89         H98 1.140       .   S
C90         C91 1.538       .   A
C90         C95 1.538       .   S
C91         C92 1.539       .   A
C91         H99 1.140       .   S
C92        H100 1.139       .   S
C93         C94 1.539       .   T
C95         C96 1.539       .   T
C73         C74 1.540       .   A
C73         C78 1.540       .   A
C73         C79 1.539       .   S
C74         C75 1.539       .   A
C74         H83 1.140       .   S
C75         C76 1.538       .   A
C75         H84 1.140       .   S
C76         C77 1.538       .   A
C76         C81 1.538       .   S
C77         C78 1.539       .   A
C77         H85 1.140       .   S
C78         H86 1.139       .   S
C79         C80 1.539       .   T
C81         C82 1.539       .   T
C59         C60 1.540       .   A
C59         C64 1.540       .   A
C59         C65 1.539       .   S
C60         C61 1.539       .   A
C60         H69 1.140       .   S
C61         C62 1.538       .   A
C61         H70 1.140       .   S
C62         C63 1.538       .   A
C62         C67 1.538       .   S
C63         C64 1.539       .   A
C63         H71 1.140       .   S
C64         H72 1.139       .   S
C65         C66 1.539       .   T
C67         C68 1.539       .   T
C45         C46 1.540       .   A
C45         C50 1.540       .   A
C45         C51 1.539       .   S
C46         C47 1.539       .   A
C46         H55 1.140       .   S
C47         C48 1.538       .   A
C47         H56 1.140       .   S
C48         C49 1.538       .   A
C48         C53 1.538       .   S
C49         C50 1.539       .   A
C49         H57 1.140       .   S
C50         H58 1.139       .   S
C51         C52 1.539       .   T
C53         C54 1.539       .   T
