data_acs_v1-6c_Al_1_1-3B_4H_Ch
_audit_creation_date              2021-04-28
_audit_creation_method            'tobacco_3.0'
_symmetry_space_group_name_H-M    'P1'
_symmetry_Int_Tables_number       1
_symmetry_cell_setting            triclinic
loop_
_symmetry_equiv_pos_as_xyz
  x,y,z
_cell_length_a                    30.524850220206197
_cell_length_b                    30.524850458809293
_cell_length_c                    24.206420953390996
_cell_angle_alpha                 89.99999981220995
_cell_angle_beta                  90.00000010169904
_cell_angle_gamma                 120.00070755557596
loop_
_atom_site_label
_atom_site_type_symbol
_atom_site_fract_x
_atom_site_fract_y
_atom_site_fract_z
_atom_site_charge
O1         O    0.3354903069    0.7439544416    0.6982079566          0.7946
O2         O    0.2560474699    0.5916377909    0.6982079569          0.7946
O3         O    0.4083584404    0.6645115503    0.6982079569          0.7946
O4         O    0.4083631563    0.7439558487    0.6982079567          0.7946
O5         O    0.3354864541    0.5916384296    0.6982079569          0.7946
O6         O    0.2560466067    0.6645095046    0.6982079567          0.7946
C7         C    0.3800446832    0.7601911920    0.6798822405          0.7946
C8         C    0.2398109913    0.6199553168    0.6798822406          0.7946
C9         C    0.3800443254    0.6199534914    0.6798822408          0.7946
O10        O    0.3354903069    0.7439544415    0.8017920431          0.7946
O11        O    0.2560474699    0.5916377908    0.8017920433          0.7946
O12        O    0.4083584404    0.6645115502    0.8017920433          0.7946
O13        O    0.4083631563    0.7439558486    0.8017920431          0.7946
O14        O    0.3354864541    0.5916384295    0.8017920434          0.7946
O15        O    0.2560466067    0.6645095045    0.8017920431          0.7946
Al16      Al    0.3004900181    0.6995040805    0.7499958688             1.0
Al17      Al    0.3004892092    0.6010814118    0.7499958690             1.0
Al18      Al    0.3989142206    0.6995079556    0.7499958689             1.0
O19        O    0.3332990769    0.6666965550    0.7499958689          0.7946
C20        C    0.3800446833    0.7601911918    0.8201177592          0.7946
C21        C    0.2398109914    0.6199553167    0.8201177594          0.7946
C22        C    0.3800443254    0.6199534912    0.8201177595          0.7946
O23        O    0.6644434548    0.2561117993    0.1982079545          0.7946
O24        O    0.7438862918    0.4084284500    0.1982079543          0.7946
O25        O    0.5915753213    0.3355546906    0.1982079542          0.7946
O26        O    0.5915706054    0.2561103922    0.1982079544          0.7946
O27        O    0.6644473076    0.4084278113    0.1982079542          0.7946
O28        O    0.7438871550    0.3355567363    0.1982079544          0.7946
C29        C    0.6198890785    0.2398750489    0.1798822383          0.7946
C30        C    0.7601227704    0.3801109241    0.1798822382          0.7946
C31        C    0.6198894363    0.3801127495    0.1798822380          0.7946
O32        O    0.6644434548    0.2561117991    0.3017920409          0.7946
O33        O    0.7438862918    0.4084284498    0.3017920407          0.7946
O34        O    0.5915753214    0.3355546904    0.3017920407          0.7946
O35        O    0.5915706054    0.2561103921    0.3017920408          0.7946
O36        O    0.6644473076    0.4084278112    0.3017920406          0.7946
O37        O    0.7438871550    0.3355567361    0.3017920408          0.7946
Al38      Al    0.6994437436    0.3005621603    0.2499958665             1.0
Al39      Al    0.6994445525    0.3989848290    0.2499958663             1.0
Al40      Al    0.6010195411    0.3005582852    0.2499958664             1.0
O41        O    0.6666346848    0.3333696857    0.2499958664          0.7946
C42        C    0.6198890785    0.2398750488    0.3201177571          0.7946
C43        C    0.7601227704    0.3801109239    0.3201177569          0.7946
C44        C    0.6198894363    0.3801127493    0.3201177568          0.7946
C195       C    0.8081446766    0.4041219055    0.1438659774         -0.2197
C196       C    0.8076164603    0.3819687855    0.0865905004         -0.2969
C197       C    0.8547342072    0.4079256601    0.0493009694         -0.3267
C198       C    0.9023413795    0.4561137677    0.0692829437         -0.1122
C199       C    0.9025589489    0.4788776045    0.1261202448         -0.3145
C200       C    0.8554897068    0.4527702418    0.1635167468          -0.307
C201       C    0.9498889619    0.4810890502    0.0325941877         -0.1863
C202       C    0.9499078093    0.4573527712    0.9764870844         -0.2974
C203       C    0.9978844050    0.4813402151    0.9404558641         -0.2974
C204       C    0.0458509183    0.5290383043    0.9606328276         -0.1863
C205       C    0.0455826482    0.5532970877    0.0163122511         -0.2976
C206       C    0.9975541616    0.5293186698    0.0523194278         -0.2975
C207       C    0.0942619072    0.5520365891    0.9253836594         -0.1124
C208       C    0.0942015243    0.5277809412    0.8696200998         -0.3265
C209       C    0.1429315423    0.5498045131    0.8349126244         -0.2972
C210       C    0.1917890851    0.5959443353    0.8561340202         -0.2195
C211       C    0.1916740850    0.6206472508    0.9115875273         -0.3071
C212       C    0.1428316475    0.5987801521    0.9461450232         -0.3144
H214       H    0.7724335624    0.3461637829    0.0719115191         -0.0895
H215       H    0.8545070995    0.3913301832    0.0070389964         -0.1175
H216       H    0.9376759080    0.5148350628    0.1406937005         -0.1181
H217       H    0.8557238390    0.4693768915    0.2057897151         -0.0906
H218       H    0.9144186631    0.4218760437    0.9617564351         -0.1215
H219       H    0.9980514110    0.4635987474    0.8990587365         -0.1215
H220       H    0.0810363886    0.5888276150    0.0310154924         -0.1208
H221       H    0.9973671587    0.5470926650    0.0936846765         -0.1208
H222       H    0.0581162071    0.4934320001    0.8541116269         -0.1175
H223       H    0.1429224350    0.5317916648    0.7937037776         -0.0895
H225       H    0.2277215601    0.6550275637    0.9270939472         -0.0907
H226       H    0.1427059022    0.6169595729    0.9871973662         -0.1182
C165       C    0.1917890843    0.5959443351    0.6438659787         -0.2197
C166       C    0.1398730622    0.5795701154    0.6699851478         -0.2969
C167       C    0.0923759300    0.5584472129    0.6332990092         -0.3267
C168       C    0.0968524640    0.5538135479    0.5704597537         -0.1122
C169       C    0.1489225465    0.5711248225    0.5441514418         -0.3145
C170       C    0.1963996729    0.5920458757    0.5808992256          -0.307
C171       C    0.0490773739    0.5312639911    0.5341328266         -0.1863
C172       C    0.9969582231    0.5127250813    0.5608733727         -0.2974
C173       C    0.9489449864    0.4887395418    0.5249004180         -0.2974
C174       C    0.9531085272    0.4832518655    0.4621824218         -0.1863
C175       C    0.0053094793    0.5025794965    0.4352807714         -0.2976
C176       C    0.0533435194    0.5266290662    0.4712791187         -0.2975
C177       C    0.9049451930    0.4578142883    0.4265393873         -0.1124
C178       C    0.8529024545    0.4388355144    0.4536279376         -0.3265
C179       C    0.8044943430    0.4120967419    0.4184084736         -0.2972
C180       C    0.8081446774    0.4041219057    0.3561340188         -0.2195
C181       C    0.8602735276    0.4237322776    0.3288773963         -0.3071
C182       C    0.9087150672    0.4507478553    0.3640724998         -0.3144
H184       H    0.1365444256    0.5828037675    0.7165455150         -0.0895
H185       H    0.0538492814    0.5459588403    0.6526616340         -0.1175
H186       H    0.1522847586    0.5681128083    0.4975370202         -0.1181
H187       H    0.2349347478    0.6045368498    0.5615230269         -0.0906
H188       H    0.9939414343    0.5165927041    0.6073731880         -0.1215
H189       H    0.9102867059    0.4746847611    0.5447104384         -0.1215
H190       H    0.0083534899    0.4988018998    0.3887665650         -0.1208
H191       H    0.0920059806    0.5407379556    0.4514623717         -0.1208
H192       H    0.8502083837    0.4444544983    0.4997848291         -0.1175
H193       H    0.7659723096    0.3979506828    0.4384701613         -0.0895
H195       H    0.8630052545    0.4181825270    0.2827187497         -0.0907
H196       H    0.9472851436    0.4652040355    0.3439923610         -0.1182
C135       C    0.4040550727    0.8082114770    0.6438668675         -0.2197
C136       C    0.4550987586    0.8541209989    0.6604338692         -0.2969
C137       C    0.4804885930    0.9008787566    0.6225719421         -0.3267
C138       C    0.4548480839    0.9016471093    0.5680737002         -0.1122
C139       C    0.4042769823    0.8553393025    0.5509291777         -0.3145
C140       C    0.3787769530    0.8086556133    0.5889387232          -0.307
C141       C    0.4795848657    0.9490431411    0.5311439765         -0.1863
C142       C    0.5294234935    0.9957396121    0.5492607749         -0.2974
C143       C    0.5534560436    0.0437445897    0.5132746865         -0.2974
C144       C    0.5275564343    0.0450187857    0.4592043830         -0.1863
C145       C    0.4781665817    0.9980261133    0.4405855304         -0.2976
C146       C    0.4541658767    0.9499837216    0.4765705962         -0.2975
C147       C    0.5507714829    0.0935670659    0.4241735090         -0.1124
C148       C    0.6002999911    0.1403170625    0.4428449446         -0.3265
C149       C    0.6229365890    0.1894357754    0.4087555133         -0.2972
C150       C    0.5958786890    0.1918547638    0.3561331301         -0.2195
C151       C    0.5466765547    0.1448526837    0.3370296858         -0.3071
C152       C    0.5242012901    0.0956246339    0.3709740425         -0.3144
H154       H    0.4739624432    0.8536213573    0.7009060709         -0.0895
H155       H    0.5181137249    0.9350504520    0.6350088580         -0.1175
H156       H    0.3855255779    0.8557475161    0.5103109219         -0.1181
H157       H    0.3411409093    0.7744769313    0.5764905231         -0.0906
H158       H    0.5484021123    0.9947983726    0.5894660903         -0.1215
H159       H    0.5901920246    0.0784733510    0.5268355437         -0.1215
H160       H    0.4592210438    0.9989188023    0.4003319059         -0.1208
H161       H    0.4174634216    0.9152355967    0.4629788676         -0.1208
H162       H    0.6201273711    0.1386026254    0.4819909616         -0.1175
H163       H    0.6595283404    0.2240690927    0.4226329248         -0.0895
H165       H    0.5268591962    0.1465157335    0.2978600778         -0.0907
H166       H    0.4877813387    0.0608597793    0.3569454031         -0.1182
C105       C    0.5958786891    0.1918547641    0.1438668659         -0.2197
C106       C    0.5531012555    0.1819213355    0.1032264048         -0.2969
C107       C    0.5313167841    0.1354760352    0.0648676647         -0.3267
C108       C    0.5524177605    0.0990329440    0.0670977289         -0.1122
C109       C    0.5959004205    0.1094890522    0.1069628762         -0.3145
C110       C    0.6175317354    0.1558369227    0.1455063798          -0.307
C111       C    0.5295149467    0.0518194545    0.0298777566         -0.1863
C112       C    0.4851140655    0.0408222940    0.9912271864         -0.2974
C113       C    0.4611072785    0.9928427460    0.9552006616         -0.2974
C114       C    0.4815043740    0.9558479464    0.9579315856         -0.1863
C115       C    0.5264776109    0.9672709404    0.9958739784         -0.2976
C116       C    0.5505239539    0.0153102072    0.0318640135         -0.2955
C117       C    0.4564325099    0.9071030138    0.9232133978         -0.1124
C118       C    0.4116784152    0.8960444876    0.8851299240         -0.3265
C119       C    0.3855571634    0.8466543910    0.8514719941         -0.2972
C120       C    0.4040550726    0.8082114767    0.8561331317         -0.2195
C121       C    0.4492905208    0.8195950111    0.8936686448         -0.3071
C122       C    0.4756036042    0.8691536481    0.9270873614         -0.3144
H124       H    0.5373400186    0.2087957134    0.1017587273         -0.0895
H125       H    0.4993742077    0.1278826638    0.0350409960         -0.1175
H126       H    0.6118303940    0.0827323656    0.1082427403         -0.1181
H127       H    0.6494844690    0.1634267064    0.1753385788         -0.0906
H128       H    0.4699014614    0.0681442117    0.9894831820         -0.1215
H129       H    0.4279977514    0.9844825852    0.9268314029         -0.1215
H130       H    0.5417623344    0.9400047172    0.9975583150         -0.1208
H131       H    0.5836705866    0.0237015846    0.0601835536         -0.1208
H132       H    0.3977961076    0.9243586373    0.8819783479         -0.1175
H133       H    0.3523669613    0.8384136180    0.8233812126         -0.0895
H135       H    0.4632326988    0.7913334047    0.8967947921         -0.0907
H136       H    0.5090104945    0.8775910272    0.9549234500         -0.1182
C75        C    0.4040557540    0.5959425001    0.8561345833         -0.2197
C76        C    0.4186878668    0.5589177660    0.8304267266         -0.2969
C77        C    0.4455088172    0.5373956024    0.8657668207         -0.3267
C78        C    0.4577835128    0.5530118361    0.9268012719         -0.1122
C79        C    0.4440664346    0.5908305508    0.9522608016         -0.3145
C80        C    0.4170313476    0.6121803635    0.9169573196          -0.307
C81        C    0.4832216178    0.5302461999    0.9624457676         -0.1863
C82        C    0.4955614209    0.4913880804    0.9371692929         -0.2974
C83        C    0.5195779146    0.4673871609    0.9731347896         -0.2974
C84        C    0.5311688995    0.4822351094    0.0344111960         -0.1863
C85        C    0.5196369399    0.5217457161    0.0594716609         -0.2976
C86        C    0.4956624935    0.5457937292    0.0234557158         -0.2975
C87        C    0.5536868688    0.4570238514    0.0707437056         -0.1124
C88        C    0.5653973278    0.4177716216    0.0453717777         -0.3265
C89        C    0.5866159274    0.3914025114    0.0818949789         -0.2972
C90        C    0.5958780077    0.4041237407    0.1438654143         -0.2195
C91        C    0.5848112899    0.4439163813    0.1691041749         -0.3071
C92        C    0.5638620337    0.4705071367    0.1324763320         -0.3144
H94        H    0.4093949560    0.5471962598    0.7852975524         -0.0895
H95        H    0.4560240328    0.5096775624    0.8468701295         -0.1175
H96        H    0.4535810369    0.6027414708    0.9973393141         -0.1181
H97        H    0.4065167509    0.6399069703    0.9358668240         -0.0906
H98        H    0.4867049228    0.4802558353    0.8918478432         -0.1215
H99        H    0.5284232286    0.4383483161    0.9545551306         -0.1215
H100       H    0.5285705035    0.5329574282    0.1047680342         -0.1208
H101       H    0.4868722929    0.5748756440    0.0420163027         -0.1208
H102       H    0.5582206684    0.4081322534    0.9995827910         -0.1175
H103       H    0.5951788318    0.3622730111    0.0631519194         -0.0895
H105       H    0.5920312344    0.4536199767    0.2148683397         -0.0907
H106       H    0.5555898058    0.4998861124    0.1510959321         -0.1182
C45        C    0.4040557548    0.5959424994    0.6438654153         -0.2197
C46        C    0.4589142947    0.6281556910    0.6234400160         -0.2969
C47        C    0.4838170694    0.6033319542    0.5902997612         -0.3267
C48        C    0.4538552342    0.5462504625    0.5777038316         -0.1122
C49        C    0.3993133418    0.5138013049    0.5990638118         -0.3145
C50        C    0.3743358615    0.5386926800    0.6320075496          -0.307
C51        C    0.4783474765    0.5218568033    0.5431440882         -0.1863
C52        C    0.5323785101    0.5547578361    0.5206074127         -0.2974
C53        C    0.5564106546    0.5307838552    0.4846239666         -0.2974
C54        C    0.5263250226    0.4738978049    0.4711439505         -0.1863
C55        C    0.4726106178    0.4408037780    0.4944599803         -0.2976
C56        C    0.4486029301    0.4647945756    0.5305140483         -0.2975
C57        C    0.5497856585    0.4503090698    0.4337303531         -0.1124
C58        C    0.6036030970    0.4835315816    0.4108123334         -0.3265
C59        C    0.6267143937    0.4604201917    0.3721185118         -0.2972
C60        C    0.5958780069    0.4041237413    0.3561345822         -0.2195
C61        C    0.5422782709    0.3707083403    0.3796743673         -0.3071
C62        C    0.5192846135    0.3937802618    0.4186468108         -0.3144
H64        H    0.4810101177    0.6704606284    0.6325713506         -0.0895
H65        H    0.5243229811    0.6272340489    0.5748019372         -0.1175
H66        H    0.3772921159    0.4714326016    0.5901518326         -0.1181
H67        H    0.3338176703    0.5147769512    0.6475073529         -0.0906
H68        H    0.5544924442    0.5969320519    0.5304107475         -0.1215
H69        H    0.5963006738    0.5551793107    0.4676003311         -0.1215
H70        H    0.4505152818    0.3986083949    0.4847487746         -0.1208
H71        H    0.4087377000    0.4403899957    0.5475915329         -0.1208
H72        H    0.6262757418    0.5252689833    0.4223689591         -0.1175
H73        H    0.6664966311    0.4850255619    0.3550580068         -0.0895
H75        H    0.5196055237    0.3289604871    0.3681923221         -0.0907
H76        H    0.4796261040    0.3691370142    0.4360222383         -0.1182
loop_
_geom_bond_atom_site_label_1
_geom_bond_atom_site_label_2
_geom_bond_distance
_geom_bond_site_symmetry_2
_ccdc_geom_bond_type
O1         Al16 1.762       .   S
O1           C7 1.272       .   A
O2         Al17 1.762       .   S
O2           C8 1.272       .   A
O3         Al18 1.762       .   S
O3           C9 1.272       .   A
O4         Al18 1.762       .   S
O4           C7 1.272       .   A
O5         Al17 1.762       .   S
O5           C9 1.272       .   A
O6         Al16 1.762       .   S
O6           C8 1.272       .   A
C7         C135 1.540       .   S
C8         C165 1.540       .   S
C9          C45 1.540       .   S
O10        Al16 1.762       .   S
O10         C20 1.272       .   A
O11        Al17 1.762       .   S
O11         C21 1.272       .   A
O12        Al18 1.762       .   S
O12         C22 1.272       .   A
O13        Al18 1.762       .   S
O13         C20 1.272       .   A
O14        Al17 1.762       .   S
O14         C22 1.272       .   A
O15        Al16 1.762       .   S
O15         C21 1.272       .   A
Al16        O19 1.735       .   S
Al17        O19 1.735       .   S
Al18        O19 1.735       .   S
C20        C120 1.540       .   S
C21        C210 1.540       .   S
C22         C75 1.540       .   S
O23        Al38 1.762       .   S
O23         C29 1.272       .   A
O24        Al39 1.762       .   S
O24         C30 1.272       .   A
O25        Al40 1.762       .   S
O25         C31 1.272       .   A
O26        Al40 1.762       .   S
O26         C29 1.272       .   A
O27        Al39 1.762       .   S
O27         C31 1.272       .   A
O28        Al38 1.762       .   S
O28         C30 1.272       .   A
C29        C105 1.540   1_544   S
C30        C195 1.540   1_654   S
C31         C90 1.540   1_554   S
O32        Al38 1.762       .   S
O32         C42 1.272       .   A
O33        Al39 1.762       .   S
O33         C43 1.272       .   A
O34        Al40 1.762       .   S
O34         C44 1.272       .   A
O35        Al40 1.762       .   S
O35         C42 1.272       .   A
O36        Al39 1.762       .   S
O36         C44 1.272       .   A
O37        Al38 1.762       .   S
O37         C43 1.272       .   A
Al38        O41 1.735       .   S
Al39        O41 1.735       .   S
Al40        O41 1.735       .   S
C42        C150 1.540   1_545   S
C43        C180 1.540   1_655   S
C44         C60 1.540       .   S
C196       C195 1.539       .   A
C195       C200 1.540       .   A
H214       C196 1.140       .   S
C197       C196 1.540       .   A
H215       C197 1.140       .   S
C197       C198 1.540       .   A
C201       C198 1.539       .   S
C199       C198 1.540       .   A
H216       C199 1.141       .   S
C200       C199 1.541       .   A
H217       C200 1.141       .   S
C206       C201 1.539       .   A
C202       C201 1.540       .   A
H218       C202 1.140       .   S
C202       C203 1.539       .   A
H219       C203 1.140       .   S
C204       C203 1.540       .   A
C207       C204 1.539       .   S
C205       C204 1.540       .   A
H220       C205 1.140       .   S
C206       C205 1.540       .   A
H221       C206 1.140       .   S
C212       C207 1.540       .   A
C207       C208 1.539       .   A
H222       C208 1.140       .   S
C209       C208 1.540       .   A
H223       C209 1.139       .   S
C210       C209 1.540       .   A
C211       C210 1.541       .   A
C212       C211 1.541       .   A
C211       H225 1.139       .   S
C212       H226 1.139       .   S
C166       C165 1.539       .   A
C165       C170 1.540       .   A
H184       C166 1.140       .   S
C167       C166 1.540       .   A
H185       C167 1.140       .   S
C167       C168 1.540       .   A
C171       C168 1.539       .   S
C169       C168 1.540       .   A
H186       C169 1.141       .   S
C170       C169 1.541       .   A
H187       C170 1.141       .   S
C176       C171 1.539       .   A
C172       C171 1.540       .   A
H188       C172 1.140       .   S
C172       C173 1.539       .   A
H189       C173 1.140       .   S
C174       C173 1.540       .   A
C177       C174 1.539       .   S
C175       C174 1.540       .   A
H190       C175 1.140       .   S
C176       C175 1.540       .   A
H191       C176 1.140       .   S
C182       C177 1.540       .   A
C177       C178 1.539       .   A
H192       C178 1.140       .   S
C179       C178 1.540       .   A
H193       C179 1.139       .   S
C180       C179 1.540       .   A
C181       C180 1.541       .   A
C182       C181 1.541       .   A
C181       H195 1.139       .   S
C182       H196 1.139       .   S
C136       C135 1.539       .   A
C135       C140 1.540       .   A
H154       C136 1.140       .   S
C137       C136 1.540       .   A
H155       C137 1.140       .   S
C137       C138 1.540       .   A
C141       C138 1.539       .   S
C139       C138 1.540       .   A
H156       C139 1.141       .   S
C140       C139 1.541       .   A
H157       C140 1.141       .   S
C146       C141 1.539       .   A
C142       C141 1.540       .   A
H158       C142 1.140       .   S
C142       C143 1.539       .   A
H159       C143 1.140       .   S
C144       C143 1.540       .   A
C147       C144 1.539       .   S
C145       C144 1.540       .   A
H160       C145 1.140       .   S
C146       C145 1.540       .   A
H161       C146 1.140       .   S
C152       C147 1.540       .   A
C147       C148 1.539       .   A
H162       C148 1.140       .   S
C149       C148 1.540       .   A
H163       C149 1.139       .   S
C150       C149 1.540       .   A
C151       C150 1.541       .   A
C152       C151 1.541       .   A
C151       H165 1.139       .   S
C152       H166 1.139       .   S
C106       C105 1.539       .   A
C105       C110 1.540       .   A
H124       C106 1.140       .   S
C107       C106 1.540       .   A
H125       C107 1.140       .   S
C107       C108 1.540       .   A
C111       C108 1.539       .   S
C109       C108 1.540       .   A
H126       C109 1.141       .   S
C110       C109 1.541       .   A
H127       C110 1.141       .   S
C116       C111 1.539       .   A
C112       C111 1.540       .   A
H128       C112 1.140       .   S
C112       C113 1.539       .   A
H129       C113 1.140       .   S
C114       C113 1.540       .   A
C117       C114 1.539       .   S
C115       C114 1.540       .   A
H130       C115 1.140       .   S
C116       C115 1.540       .   A
H131       C116 1.140       .   S
C122       C117 1.540       .   A
C117       C118 1.539       .   A
H132       C118 1.140       .   S
C119       C118 1.540       .   A
H133       C119 1.139       .   S
C120       C119 1.540       .   A
C121       C120 1.541       .   A
C122       C121 1.541       .   A
C121       H135 1.139       .   S
C122       H136 1.139       .   S
C76         C75 1.539       .   A
C75         C80 1.540       .   A
H94         C76 1.140       .   S
C77         C76 1.540       .   A
H95         C77 1.140       .   S
C77         C78 1.540       .   A
C81         C78 1.539       .   S
C79         C78 1.540       .   A
H96         C79 1.141       .   S
C80         C79 1.541       .   A
H97         C80 1.141       .   S
C86         C81 1.539       .   A
C82         C81 1.540       .   A
H98         C82 1.140       .   S
C82         C83 1.539       .   A
H99         C83 1.140       .   S
C84         C83 1.540       .   A
C87         C84 1.539       .   S
C85         C84 1.540       .   A
H100        C85 1.140       .   S
C86         C85 1.540       .   A
H101        C86 1.140       .   S
C92         C87 1.540       .   A
C87         C88 1.539       .   A
H102        C88 1.140       .   S
C89         C88 1.540       .   A
H103        C89 1.139       .   S
C90         C89 1.540       .   A
C91         C90 1.541       .   A
C92         C91 1.541       .   A
C91        H105 1.139       .   S
C92        H106 1.139       .   S
C46         C45 1.539       .   A
C45         C50 1.540       .   A
H64         C46 1.140       .   S
C47         C46 1.540       .   A
H65         C47 1.140       .   S
C47         C48 1.540       .   A
C51         C48 1.539       .   S
C49         C48 1.540       .   A
H66         C49 1.141       .   S
C50         C49 1.541       .   A
H67         C50 1.141       .   S
C56         C51 1.539       .   A
C52         C51 1.540       .   A
H68         C52 1.140       .   S
C52         C53 1.539       .   A
H69         C53 1.140       .   S
C54         C53 1.540       .   A
C57         C54 1.539       .   S
C55         C54 1.540       .   A
H70         C55 1.140       .   S
C56         C55 1.540       .   A
H71         C56 1.140       .   S
C62         C57 1.540       .   A
C57         C58 1.539       .   A
H72         C58 1.140       .   S
C59         C58 1.540       .   A
H73         C59 1.139       .   S
C60         C59 1.540       .   A
C61         C60 1.541       .   A
C62         C61 1.541       .   A
C61         H75 1.139       .   S
C62         H76 1.139       .   S
