data_acs_v1-6c_Zn_1_Ch_1-1B_4H_Ch
_audit_creation_date              2021-04-21
_audit_creation_method            'tobacco_3.0'
_symmetry_space_group_name_H-M    'P1'
_symmetry_Int_Tables_number       1
_symmetry_cell_setting            triclinic
loop_
_symmetry_equiv_pos_as_xyz
  x,y,z
_cell_length_a                    16.914258719853308
_cell_length_b                    16.914127278923065
_cell_length_c                    15.808755436563025
_cell_angle_alpha                 90.00086014642574
_cell_angle_beta                  89.9991571805062
_cell_angle_gamma                 119.99974646534129
loop_
_atom_site_label
_atom_site_type_symbol
_atom_site_fract_x
_atom_site_fract_y
_atom_site_fract_z
_atom_site_charge
Zn1       Zn    0.4415465390    0.7749467732    0.7090527661          1.4972
Zn2       Zn    0.3333001545    0.5584523333    0.7090517563          1.4936
Zn3       Zn    0.3332995250    0.6667005049    0.8728417615          1.4911
Zn4       Zn    0.2250537815    0.6667003887    0.7090537160          1.4948
O5         O    0.3333000000    0.6667000000    0.7500000000         -1.8468
O6         O    0.5177305487    0.7462525958    0.6405604905         -0.7531
O7         O    0.3332998030    0.4822681687    0.7992504243         -0.7513
O8         O    0.4381763004    0.7715781967    0.9196250775         -0.7465
O9         O    0.4381773728    0.5871450160    0.6405597484         -0.7533
O10        O    0.5177299389    0.8511312872    0.7992521447         -0.7493
O11        O    0.3332993404    0.5618226580    0.9196240992         -0.7551
O12        O    0.1488696868    0.6667011514    0.7992537632          -0.749
O13        O    0.2284234641    0.4822680561    0.6405606688         -0.7566
O14        O    0.2284223916    0.6667012368    0.9196259979         -0.7505
O15        O    0.1488702967    0.5618224600    0.6405621090         -0.7551
O16        O    0.2537472566    0.7715779987    0.6405630874         -0.7542
O17        O    0.4128536000    0.8511311746    0.6405623892         -0.7521
C18        C    0.5062514152    0.6666985723    0.6191513035          0.7658
C19        C    0.3332994879    0.4937478365    0.8808455654          0.7707
C20        C    0.5062504095    0.8396523492    0.8808471787          0.7603
C21        C    0.1603485848    0.6667014277    0.8808486965           0.764
C22        C    0.1603495905    0.4937476508    0.6191528213          0.7754
C23        C    0.3333005121    0.8396521635    0.6191544346          0.7659
Zn24      Zn    0.6666340428    0.3333666664    0.3728419507          1.4972
Zn25      Zn    0.6666346722    0.2251184948    0.2090519454          1.4936
Zn26      Zn    0.5583882993    0.3333665501    0.2090539052          1.4911
Zn27      Zn    0.7748810567    0.4416129346    0.2090529552          1.4948
O28        O    0.6666345178    0.3333661615    0.2500001891         -1.8468
O29        O    0.6666338582    0.2284888195    0.4196242883         -0.7531
O30        O    0.5617579819    0.1489342176    0.1405608579         -0.7513
O31        O    0.4822042046    0.3333673128    0.2992539523         -0.7465
O32        O    0.6666343208    0.1489343302    0.2992506134         -0.7533
O33        O    0.5617569094    0.3333673983    0.4196261870         -0.7493
O34        O    0.4822048144    0.2284886214    0.1405622982         -0.7551
O35        O    0.7461881177    0.5177973361    0.1405625783          -0.749
O36        O    0.7715118906    0.2538111775    0.1405599375         -0.7566
O37        O    0.5870817744    0.4382441602    0.1405632765         -0.7505
O38        O    0.8510650665    0.4129187573    0.1405606796         -0.7551
O39        O    0.8510644566    0.5177974487    0.2992523338         -0.7542
O40        O    0.7715108181    0.4382443582    0.4196252666         -0.7521
C41        C    0.6666340057    0.1604139980    0.3808457545          0.7658
C42        C    0.4936841083    0.1604138123    0.1191530104          0.7707
C43        C    0.4936831026    0.3333675891    0.3808488856          0.7603
C44        C    0.6666350298    0.5063183250    0.1191546237           0.764
C45        C    0.8395859329    0.3333647338    0.1191514926          0.7754
C46        C    0.8395849272    0.5063185107    0.3808473679          0.7659
C97        C    0.0180372881    0.4934952172    0.0945068561          -0.139
C98        C    0.9261871574    0.4233607657    0.0548132231          0.0815
C99        C    0.9081171281    0.4298986292    0.9603064616          -0.139
C100       C    0.9818972296    0.5065709443    0.9054933331          -0.139
C101       C    0.0737473604    0.5767053958    0.9451869660          0.0825
C102       C    0.0918173896    0.5701675323    0.0396937275          -0.139
H103       H    0.0314138033    0.4886555001    0.1644664068          0.1223
H104       H    0.8401294159    0.3779855643    0.9309223848          0.1223
H105       H    0.9685207144    0.5114106614    0.8355337823          0.1223
H106       H    0.1598051019    0.6220805971    0.0690778043          0.1223
C87        C    0.1016130642    0.5684006910    0.4836719199          -0.139
C88        C    0.0737470245    0.4971416304    0.5548132411          0.0825
C89        C    0.9721012192    0.4287740202    0.5711414158          -0.139
C90        C    0.8983214536    0.4316654705    0.5163282693          -0.139
C91        C    0.9261874933    0.5029245311    0.4451869480          0.0825
C92        C    0.0278332986    0.5712921413    0.4288587733          -0.139
H93        H    0.1768573616    0.6190104804    0.4715848295          0.1223
H94        H    0.9514716589    0.3760261532    0.6238004857          0.1223
H95        H    0.8230771562    0.3810556811    0.5284153596          0.1223
H96        H    0.0484628589    0.6240400083    0.3761997034          0.1223
C77        C    0.4874767797    0.9034924271    0.5047224772          -0.139
C78        C    0.4232959374    0.9262534150    0.5548143925          0.0825
C79        C    0.4357864166    0.0227940686    0.5500920099          -0.139
C80        C    0.5124577381    0.0965737344    0.4952777119          -0.139
C81        C    0.5766385804    0.0738127465    0.4451857966          0.0825
C82        C    0.5641481012    0.9772720929    0.4499081793          -0.139
H83        H    0.4782305808    0.8320272679    0.5082182670          0.1223
H84        H    0.3882803805    0.0396447262    0.5871697181          0.1223
H85        H    0.5217039370    0.1680388936    0.4917819222          0.1223
H86        H    0.6116541373    0.9604214353    0.4128304710          0.1223
C67        C    0.4361489458    0.9721858770    0.0772918003          -0.139
C68        C    0.4970767693    0.0738143522    0.0548149937          0.0825
C69        C    0.5608950823    0.1016615560    0.9775232880          -0.139
C70        C    0.5637855719    0.0278802845    0.9227083888          -0.139
C71        C    0.5028577485    0.9262518092    0.9451851954          0.0825
C72        C    0.4390394354    0.8984046055    0.0224769011          -0.139
H73        H    0.3889068180    0.9515717132    0.1345077384          0.1223
H74        H    0.6059956604    0.1768874734    0.9608835896          0.1223
H75        H    0.6110276998    0.0484944483    0.8654924507          0.1223
H76        H    0.3939388574    0.8231786880    0.0391165996          0.1223
C57        C    0.5032193288    0.4929395140    0.9030801468          -0.139
C58        C    0.4232964469    0.4971417312    0.9451864107          0.0825
C59        C    0.4200443770    0.5042352980    0.0421063585          -0.139
C60        C    0.4967151889    0.5071266475    0.0969200424          -0.139
C61        C    0.5766380708    0.5029244303    0.0548137784          0.0825
C62        C    0.5798901408    0.4958308635    0.9578938306          -0.139
H63        H    0.5056267053    0.4876884322    0.8313342114          0.1223
H64        H    0.3608856409    0.5073459887    0.0732763327          0.1223
H65        H    0.4943078125    0.5123777293    0.1686659777          0.1223
H66        H    0.6390488769    0.4927201728    0.9267238564          0.1223
C47        C    0.5893249404    0.5691067151    0.5441907912          -0.139
C48        C    0.5028582098    0.5767055470    0.5548141833          0.0825
C49        C    0.4135005284    0.5076319127    0.5106234866          -0.139
C50        C    0.4106095774    0.4309594464    0.4558093979          -0.139
C51        C    0.4970763079    0.4233606144    0.4451860058          0.0825
C52        C    0.5864339894    0.4924342488    0.4893767025          -0.139
H53        H    0.6554728344    0.6202391457    0.5769033849          0.1223
H54        H    0.3494953338    0.5132543551    0.5184854852          0.1223
H55        H    0.3444616833    0.3798270158    0.4230968042          0.1223
H56        H    0.6504391840    0.4868118064    0.4815147039          0.1223
loop_
_geom_bond_atom_site_label_1
_geom_bond_atom_site_label_2
_geom_bond_distance
_geom_bond_site_symmetry_2
_ccdc_geom_bond_type
Zn1          O5 1.942       .   S
Zn1          O6 1.922       .   S
Zn1         O10 1.922       .   S
Zn1         O17 1.922       .   S
Zn2          O5 1.942       .   S
Zn2          O7 1.922       .   S
Zn2          O9 1.922       .   S
Zn2         O13 1.922       .   S
Zn3          O5 1.942       .   S
Zn3          O8 1.922       .   S
Zn3         O11 1.922       .   S
Zn3         O14 1.922       .   S
Zn4          O5 1.942       .   S
Zn4         O12 1.922       .   S
Zn4         O15 1.922       .   S
Zn4         O16 1.922       .   S
O6          C18 1.304       .   A
O7          C19 1.304       .   A
O8          C20 1.304       .   A
O9          C18 1.304       .   A
O10         C20 1.304       .   A
O11         C19 1.304       .   A
O12         C21 1.304       .   A
O13         C22 1.304       .   A
O14         C21 1.304       .   A
O15         C22 1.304       .   A
O16         C23 1.304       .   A
O17         C23 1.304       .   A
C18         C48 1.808       .   S
C19         C58 1.808       .   S
C20         C71 1.808       .   S
C21        C101 1.808       .   S
C22         C88 1.808       .   S
C23         C78 1.808       .   S
Zn24        O28 1.942       .   S
Zn24        O29 1.922       .   S
Zn24        O33 1.922       .   S
Zn24        O40 1.922       .   S
Zn25        O28 1.942       .   S
Zn25        O30 1.922       .   S
Zn25        O32 1.922       .   S
Zn25        O36 1.922       .   S
Zn26        O28 1.942       .   S
Zn26        O31 1.922       .   S
Zn26        O34 1.922       .   S
Zn26        O37 1.922       .   S
Zn27        O28 1.942       .   S
Zn27        O35 1.922       .   S
Zn27        O38 1.922       .   S
Zn27        O39 1.922       .   S
O29         C41 1.304       .   A
O30         C42 1.304       .   A
O31         C43 1.304       .   A
O32         C41 1.304       .   A
O33         C43 1.304       .   A
O34         C42 1.304       .   A
O35         C44 1.304       .   A
O36         C45 1.304       .   A
O37         C44 1.304       .   A
O38         C45 1.304       .   A
O39         C46 1.304       .   A
O40         C46 1.304       .   A
C41         C81 1.808   1_545   S
C42         C68 1.808   1_544   S
C43         C51 1.808       .   S
C44         C61 1.808   1_554   S
C45         C98 1.808   1_654   S
C46         C91 1.808   1_655   S
C97         C98 1.540       .   A
C97        C102 1.540       .   A
C97        H103 1.140       .   S
C98         C99 1.540       .   A
C99        C100 1.540       .   A
C99        H104 1.140       .   S
C100       C101 1.540       .   A
C100       H105 1.140       .   S
C101       C102 1.540       .   A
C102       H106 1.140       .   S
C87         C88 1.540       .   A
C87         C92 1.540       .   A
C87         H93 1.140       .   S
C88         C89 1.540       .   A
C89         C90 1.540       .   A
C89         H94 1.140       .   S
C90         C91 1.540       .   A
C90         H95 1.140       .   S
C91         C92 1.540       .   A
C92         H96 1.140       .   S
C77         C78 1.540       .   A
C77         C82 1.540       .   A
C77         H83 1.140       .   S
C78         C79 1.540       .   A
C79         C80 1.540       .   A
C79         H84 1.140       .   S
C80         C81 1.540       .   A
C80         H85 1.140       .   S
C81         C82 1.540       .   A
C82         H86 1.140       .   S
C67         C68 1.540       .   A
C67         C72 1.540       .   A
C67         H73 1.140       .   S
C68         C69 1.540       .   A
C69         C70 1.540       .   A
C69         H74 1.140       .   S
C70         C71 1.540       .   A
C70         H75 1.140       .   S
C71         C72 1.540       .   A
C72         H76 1.140       .   S
C57         C58 1.540       .   A
C57         C62 1.540       .   A
C57         H63 1.140       .   S
C58         C59 1.540       .   A
C59         C60 1.540       .   A
C59         H64 1.140       .   S
C60         C61 1.540       .   A
C60         H65 1.140       .   S
C61         C62 1.540       .   A
C62         H66 1.140       .   S
C47         C48 1.540       .   A
C47         C52 1.540       .   A
C47         H53 1.140       .   S
C48         C49 1.540       .   A
C49         C50 1.540       .   A
C49         H54 1.140       .   S
C50         C51 1.540       .   A
C50         H55 1.140       .   S
C51         C52 1.540       .   A
C52         H56 1.140       .   S
