data_acs_v1-6c_Al_1_Ch_1-1B_2F_Ch
_audit_creation_date              2021-04-19
_audit_creation_method            'tobacco_3.0'
_symmetry_space_group_name_H-M    'P1'
_symmetry_Int_Tables_number       1
_symmetry_cell_setting            triclinic
loop_
_symmetry_equiv_pos_as_xyz
  x,y,z
_cell_length_a                    17.077263053915175
_cell_length_b                    17.025947887684236
_cell_length_c                    14.000351703482387
_cell_angle_alpha                 89.53543323050425
_cell_angle_beta                  90.28802799262698
_cell_angle_gamma                 119.5581026451258
loop_
_atom_site_label
_atom_site_type_symbol
_atom_site_fract_x
_atom_site_fract_y
_atom_site_fract_z
_atom_site_charge
O1         O    0.3336413890    0.8038106640    0.8526569817         -0.8225
C2         C    0.4130218238    0.5842927410    0.6201002168           0.971
O3         O    0.4687488987    0.6487203309    0.6645943253         -0.7137
O4         O    0.4700416860    0.7998292139    0.6475211110         -0.7496
Al5       Al    0.4573785194    0.7269350447    0.7550144434          1.4898
C6         C    0.4225999064    0.8342005238    0.6228769125          0.9236
O7         O    0.2014354947    0.6663953941    0.6401256823         -0.8118
O8         O    0.1961685532    0.5326344856    0.8616271458         -0.7474
Al9       Al    0.2732467339    0.7284046389    0.7460070947          1.9012
O10        O    0.1799761274    0.5271998151    0.6691562939         -0.7381
O11        O    0.3501013852    0.5267590992    0.8472984468         -0.7366
O12        O    0.3320570423    0.5294036167    0.6519127057         -0.7932
O13        O    0.4696069814    0.6652242862    0.8573783125         -0.7752
O14        O    0.3329687754    0.6651288838    0.7532044142         -1.1365
O15        O    0.4700764550    0.8200985984    0.8411185810         -0.7285
C16        C    0.4152875443    0.8382768744    0.8770872190          0.9787
C17        C    0.1645899335    0.5816426038    0.6242488908          0.9426
Al18      Al    0.2723939535    0.5416878710    0.7573016685          1.5556
O19        O    0.3500874098    0.8190589887    0.6575098873         -0.7747
C20        C    0.4248684255    0.5813173115    0.8796239880          0.9843
C21        C    0.1594323665    0.5804699455    0.8760627730          0.9331
O22        O    0.1802168382    0.6535538290    0.8293489772         -0.8279
O23        O    0.8042069960    0.3341715524    0.1470936160         -0.8225
C24        C    0.5851497062    0.4137312438    0.3799144846           0.971
O25        O    0.6495426385    0.4696641386    0.3351958852         -0.7137
O26        O    0.8000060743    0.4706146025    0.3519840253         -0.7496
Al27      Al    0.7276462525    0.4583168910    0.2446501501          1.4898
C28        C    0.8340823468    0.4228508466    0.3766523304          0.9236
O29        O    0.6665455578    0.2011781491    0.3601291255         -0.8118
O30        O    0.5338619294    0.1967149051    0.1388867036         -0.7474
Al31      Al    0.7287153097    0.2734186572    0.2539975187          1.9012
O32        O    0.5279367175    0.1799859020    0.3313987761         -0.7381
O33        O    0.5282855432    0.3512430694    0.1529399470         -0.7366
O34        O    0.5303961380    0.3326310991    0.3483552521         -0.7932
O35        O    0.6664625623    0.4709755579    0.1423785056         -0.7752
O36        O    0.6658317671    0.3335266524    0.2468074027         -1.1365
O37        O    0.8206767012    0.4710938406    0.1583476457         -0.7285
C38        C    0.8387610080    0.4161379575    0.1224468021          0.9787
C39        C    0.5820183456    0.1643154549    0.3762331594          0.9426
Al40      Al    0.5427731663    0.2729672969    0.2430538557          1.5556
O41        O    0.8189412060    0.3501639087    0.3421824922         -0.7747
C42        C    0.5828568127    0.4262819483    0.1203730006          0.9843
C43        C    0.5814674160    0.1597706108    0.1244298778          0.9331
O44        O    0.6541840552    0.1803742528    0.1709684568         -0.8279
C95        C    0.9388994409    0.5311882266    0.9978112932         -0.2176
C96        C    0.9216276359    0.4586039818    0.0587772129          -0.098
C97        C    0.9836140325    0.4269810005    0.0585981013          0.2906
C98        C    0.0593014164    0.4654298648    0.0007071057         -0.2176
C99        C    0.0765657386    0.5380039212    0.9397323622         -0.0981
C100       C    0.0145793420    0.5696269025    0.9399114738          0.2906
F101       F    0.0267068549    0.6389196252    0.8833923879         -0.2034
H102       H    0.8931111914    0.5580146198    0.9953442512          0.1743
H103       H    0.1050821831    0.4385932833    0.0031653239          0.1744
F104       F    0.9714865196    0.3576882778    0.1151171871         -0.2032
C85        C    0.0384050572    0.5916936428    0.5297964272         -0.2176
C86        C    0.0775608540    0.5398296439    0.5590518980          -0.098
C87        C    0.0365762900    0.4498415725    0.5282626421          0.2906
C88        C    0.9602738592    0.4128046702    0.4710925064         -0.2176
C89        C    0.9211114263    0.4646638065    0.4418493232         -0.0981
C90        C    0.9620959903    0.5546518779    0.4726385791          0.2906
F91        F    0.9283612338    0.6083926683    0.4474399427         -0.2034
H92        H    0.0674942993    0.6614428290    0.5516603881          0.1743
H93        H    0.9311779810    0.3430506214    0.4492408331          0.1744
F94        F    0.0703110465    0.3961007821    0.5534612785         -0.2032
C75        C    0.5451606828    0.9480879718    0.5089857627         -0.2176
C76        C    0.4643279477    0.9206086553    0.5583175005          -0.098
C77        C    0.4227365403    0.9736411130    0.5473323594          0.2906
C78        C    0.4594525148    0.0504214183    0.4901120712         -0.2176
C79        C    0.5402903043    0.0779073234    0.4407925715         -0.0981
C80        C    0.5818817117    0.0248748656    0.4517777125          0.2906
F81        F    0.6594450961    0.0470262075    0.4067199716         -0.2034
H82        H    0.5798240437    0.9094585288    0.5151300828          0.1743
H83        H    0.4247942082    0.0890574498    0.4839799891          0.1744
F84        F    0.3451731559    0.9514897712    0.5923901004         -0.2032
C65        C    0.4360238921    0.9902965316    0.9312732530         -0.2176
C66        C    0.4583793709    0.9216428813    0.9412252331          -0.098
C67        C    0.5214821494    0.9324262452    0.0119629126          0.2906
C68        C    0.5607208618    0.0077463447    0.0702531278         -0.2176
C69        C    0.5383755895    0.0764046039    0.0602918637         -0.0981
C70        C    0.4752728109    0.0656212400    0.9895541842          0.2906
F71        F    0.4505805988    0.1286044998    0.9758888921         -0.2034
H72        H    0.3877124303    0.9851314956    0.8777557206          0.1743
H73        H    0.6090425300    0.0129159895    0.1237613761           0.174
F74        F    0.5461743615    0.8694429854    0.0256282047         -0.2032
C55        C    0.5434793354    0.5445467603    0.0862101225         -0.2176
C56        C    0.5433241087    0.4650757308    0.0601314877          -0.098
C57        C    0.5028517628    0.4256048351    0.9727422891          0.2906
C58        C    0.4642574543    0.4630615108    0.9137807010         -0.2176
C59        C    0.4644011295    0.5425235290    0.9398655009         -0.0981
C60        C    0.5048734754    0.5819944247    0.0272546995          0.2906
F61        F    0.5075599921    0.6581653426    0.0569196024         -0.2034
H62        H    0.5738590417    0.5775571844    0.1529120124          0.1743
H63        H    0.4338661965    0.4300420754    0.8470849761          0.1744
F64        F    0.5001652461    0.3494339172    0.9430773862         -0.2032
C45        C    0.4592449560    0.4563498318    0.4146140431         -0.2176
C46        C    0.5392836533    0.4591799099    0.4439155711          -0.098
C47        C    0.5778130676    0.5026915125    0.5303810505          0.2906
C48        C    0.5389177384    0.5416626683    0.5854071489         -0.2176
C49        C    0.4588878767    0.5388440749    0.5560991302         -0.0981
C50        C    0.4203584624    0.4953324723    0.4696336508          0.2906
F51        F    0.3437202829    0.4899749077    0.4370382732         -0.2034
H52        H    0.4269168999    0.4235749998    0.3484679453          0.1743
H53        H    0.5712546301    0.5744489850    0.6515467560          0.1744
F54        F    0.6544512471    0.5080490771    0.5629764282         -0.2032
loop_
_geom_bond_atom_site_label_1
_geom_bond_atom_site_label_2
_geom_bond_distance
_geom_bond_site_symmetry_2
_ccdc_geom_bond_type
O1          C16 1.264       .   A
O1          Al9 1.910       .   S
C2          O12 1.307       .   A
C2           O3 1.213       .   A
C2          C49 1.622       .   S
O3          Al5 1.923       .   S
O4          Al5 1.887       .   S
O4           C6 1.257       .   A
Al5         O13 1.841       .   S
Al5         O14 1.849       .   S
Al5         O15 1.925       .   S
C6          O19 1.234       .   A
C6          C76 1.562       .   S
O7          Al9 1.883       .   S
O7          C17 1.279       .   A
O8         Al18 1.915       .   S
O8          C21 1.267       .   A
Al9         O14 1.814       .   S
Al9         O22 1.873       .   S
Al9         O19 1.904       .   S
O10        Al18 1.918       .   S
O10         C17 1.246       .   A
O11         C20 1.236       .   A
O11        Al18 1.930       .   S
O12        Al18 1.868       .   S
O13         C20 1.281       .   A
O14        Al18 1.829       .   S
O15         C16 1.232       .   A
C16         C66 1.532       .   S
C17         C86 1.582       .   S
C20         C59 1.424       .   S
C21         O22 1.287       .   A
C21         C99 1.521       .   S
O23         C38 1.264       .   A
O23        Al31 1.910       .   S
C24         O34 1.307       .   A
C24         O25 1.213       .   A
C24         C46 1.622       .   S
O25        Al27 1.923       .   S
O26        Al27 1.887       .   S
O26         C28 1.257       .   A
Al27        O35 1.841       .   S
Al27        O36 1.849       .   S
Al27        O37 1.925       .   S
C28         O41 1.234       .   A
C28         C89 1.582   1_655   S
O29        Al31 1.883       .   S
O29         C39 1.279       .   A
O30        Al40 1.915       .   S
O30         C43 1.267       .   A
Al31        O36 1.814       .   S
Al31        O44 1.873       .   S
Al31        O41 1.904       .   S
O32        Al40 1.918       .   S
O32         C39 1.246       .   A
O33         C42 1.236       .   A
O33        Al40 1.930       .   S
O34        Al40 1.868       .   S
O35         C42 1.281       .   A
O36        Al40 1.829       .   S
O37         C38 1.232       .   A
C38         C96 1.521   1_654   S
C39         C79 1.562   1_545   S
C42         C56 1.424   1_554   S
C43         O44 1.287       .   A
C43         C69 1.532   1_544   S
C95         C96 1.403       .   A
C95        C100 1.387       .   A
C95        H102 1.083       .   S
C96         C97 1.404       .   A
C97         C98 1.387       .   A
C97        F104 1.344       .   S
C98         C99 1.403       .   A
C98        H103 1.083       .   S
C99        C100 1.404       .   A
C100       F101 1.344       .   S
C85         C86 1.403       .   A
C85         C90 1.387       .   A
C85         H92 1.083       .   S
C86         C87 1.404       .   A
C87         C88 1.387       .   A
C87         F94 1.344       .   S
C88         C89 1.403       .   A
C88         H93 1.083       .   S
C89         C90 1.404       .   A
C90         F91 1.344       .   S
C75         C76 1.403       .   A
C75         C80 1.387       .   A
C75         H82 1.083       .   S
C76         C77 1.404       .   A
C77         C78 1.387       .   A
C77         F84 1.344       .   S
C78         C79 1.403       .   A
C78         H83 1.083       .   S
C79         C80 1.404       .   A
C80         F81 1.344       .   S
C65         C66 1.403       .   A
C65         C70 1.387       .   A
C65         H72 1.083       .   S
C66         C67 1.404       .   A
C67         C68 1.387       .   A
C67         F74 1.344       .   S
C68         C69 1.403       .   A
C68         H73 1.083       .   S
C69         C70 1.404       .   A
C70         F71 1.344       .   S
C55         C56 1.403       .   A
C55         C60 1.387       .   A
C55         H62 1.083       .   S
C56         C57 1.404       .   A
C57         C58 1.387       .   A
C57         F64 1.344       .   S
C58         C59 1.403       .   A
C58         H63 1.083       .   S
C59         C60 1.404       .   A
C60         F61 1.344       .   S
C45         C46 1.403       .   A
C45         C50 1.387       .   A
C45         H52 1.083       .   S
C46         C47 1.404       .   A
C47         C48 1.387       .   A
C47         F54 1.344       .   S
C48         C49 1.403       .   A
C48         H53 1.083       .   S
C49         C50 1.404       .   A
C50         F51 1.344       .   S
