data_acs_v1-6c_Al_1_1-3B_4H_Ch
_audit_creation_date              2021-04-23
_audit_creation_method            'tobacco_3.0'
_symmetry_space_group_name_H-M    'P1'
_symmetry_Int_Tables_number       1
_symmetry_cell_setting            triclinic
loop_
_symmetry_equiv_pos_as_xyz
  x,y,z
_cell_length_a                    30.524850809477098
_cell_length_b                    30.524850491777606
_cell_length_c                    24.206420877167908
_cell_angle_alpha                 90.00000001318557
_cell_angle_beta                  89.99999919575927
_cell_angle_gamma                 120.00070885636757
loop_
_atom_site_label
_atom_site_type_symbol
_atom_site_fract_x
_atom_site_fract_y
_atom_site_fract_z
_atom_site_charge
O1         O    0.2560455584    0.6645096920    0.8017920440          0.7946
O2         O    0.4083622094    0.7439525307    0.8017920427          0.7946
O3         O    0.3354884483    0.5916415596    0.8017920433          0.7946
O4         O    0.2560441503    0.5916368427    0.8017920440          0.7946
O5         O    0.4083615697    0.6645135466    0.8017920427          0.7946
O6         O    0.3354904961    0.7439533930    0.8017920434          0.7946
C7         C    0.2398088074    0.6199553154    0.8201177604          0.7946
C8         C    0.3800446838    0.7601890088    0.8201177592          0.7946
C9         C    0.3800465072    0.6199556750    0.8201177592          0.7946
O10        O    0.2560455592    0.6645096924    0.6982079573          0.7946
O11        O    0.4083622102    0.7439525311    0.6982079560          0.7946
O12        O    0.3354884490    0.5916415600    0.6982079566          0.7946
O13        O    0.2560441511    0.5916368431    0.6982079573          0.7946
O14        O    0.4083615704    0.6645135470    0.6982079560          0.7946
O15        O    0.3354904969    0.7439533934    0.6982079566          0.7946
Al16      Al    0.3004959202    0.6995099814    0.7500041314             1.0
Al17      Al    0.3989185883    0.6995107916    0.7500041306             1.0
Al18      Al    0.3004920437    0.6010857791    0.7500041314             1.0
O19        O    0.3333034450    0.6667009231    0.7500041311          0.7946
C20        C    0.2398088085    0.6199553160    0.6798822412          0.7946
C21        C    0.3800446848    0.7601890093    0.6798822400          0.7946
C22        C    0.3800465083    0.6199556755    0.6798822400          0.7946
O23        O    0.7438881988    0.3355565492    0.3017920425          0.7946
O24        O    0.5915715478    0.2561137105    0.3017920438          0.7946
O25        O    0.6644453089    0.4084246816    0.3017920432          0.7946
O26        O    0.7438896069    0.4084293984    0.3017920425          0.7946
O27        O    0.5915721876    0.3355526946    0.3017920438          0.7946
O28        O    0.6644432611    0.2561128482    0.3017920432          0.7946
C29        C    0.7601249495    0.3801109256    0.3201177586          0.7946
C30        C    0.6198890732    0.2398772323    0.3201177598          0.7946
C31        C    0.6198872497    0.3801105660    0.3201177598          0.7946
O32        O    0.7438881996    0.3355565496    0.1982079557          0.7946
O33        O    0.5915715486    0.2561137109    0.1982079570          0.7946
O34        O    0.6644453097    0.4084246819    0.1982079564          0.7946
O35        O    0.7438896076    0.4084293988    0.1982079558          0.7946
O36        O    0.5915721883    0.3355526950    0.1982079571          0.7946
O37        O    0.6644432619    0.2561128486    0.1982079564          0.7946
Al38      Al    0.6994378378    0.3005562602    0.2500041306             1.0
Al39      Al    0.6010151697    0.3005554500    0.2500041315             1.0
Al40      Al    0.6994417143    0.3989804625    0.2500041306             1.0
O41        O    0.6666303130    0.3333653185    0.2500041309          0.7946
C42        C    0.7601249506    0.3801109261    0.1798822394          0.7946
C43        C    0.6198890742    0.2398772328    0.1798822406          0.7946
C44        C    0.6198872508    0.3801105666    0.1798822406          0.7946
C195       C    0.8081452332    0.4041213138    0.1438668686         -0.2197
C196       C    0.8183680926    0.3711710095    0.1036875411         -0.2969
C197       C    0.8648025223    0.3957998403    0.0653114803         -0.3267
C198       C    0.9009447535    0.4534171348    0.0670622000         -0.1122
C199       C    0.8901958621    0.4865393511    0.1064608725         -0.3145
C200       C    0.8438596515    0.4618571673    0.1450229543          -0.307
C201       C    0.9481529241    0.4777117548    0.0298337521         -0.1863
C202       C    0.9594477619    0.4442272524    0.9916574543         -0.2974
C203       C    0.0074274395    0.4682002535    0.9556311348         -0.2974
C204       C    0.0441246179    0.5256740212    0.9578878744         -0.1863
C205       C    0.0324012343    0.5592958063    0.9953516737         -0.2976
C206       C    0.9843617663    0.5353019840    0.0313413894         -0.2975
C207       C    0.0928748312    0.5493643484    0.9231780989         -0.1124
C208       C    0.1042334774    0.5155939288    0.8855727894         -0.3265
C209       C    0.1536343545    0.5388946416    0.8519320344         -0.2972
C210       C    0.1917885248    0.5959449278    0.8561331312         -0.2195
C211       C    0.1801024609    0.6298644110    0.8931866412         -0.3071
C212       C    0.1305322334    0.6065837806    0.9265868926         -0.3144
H214       H    0.7917171048    0.3284835231    0.1025757794         -0.0895
H215       H    0.8726113261    0.3713758956    0.0358280479         -0.1175
H216       H    0.9167283284    0.5292753488    0.1073834979         -0.1181
H217       H    0.8360543440    0.4862948733    0.1745117716         -0.0906
H218       H    0.9323467737    0.4016349239    0.9902654454         -0.1215
H219       H    0.0160089512    0.4433947042    0.9276145420         -0.1215
H220       H    0.0594461932    0.6019036133    0.9966834814         -0.1208
H221       H    0.9757488761    0.5601127805    0.0593080056         -0.1208
H222       H    0.0761339559    0.4733199993    0.8827631693         -0.1175
H223       H    0.1620975438    0.5138910150    0.8241956162         -0.0895
H225       H    0.2081491846    0.6721450419    0.8959704272         -0.0907
H226       H    0.1218715466    0.6316039596    0.9540671975         -0.1182
C165       C    0.1917885215    0.5959449261    0.6438668670         -0.2197
C166       C    0.1961161989    0.5954439496    0.5805495374         -0.2969
C167       C    0.1479904231    0.5686777784    0.5448629552         -0.3267
C168       C    0.0955380787    0.5423199877    0.5725496520         -0.1122
C169       C    0.0911955647    0.5419327461    0.6359463831         -0.3145
C170       C    0.1393463836    0.5689088267    0.6716229821          -0.307
C171       C    0.0474818941    0.5169190390    0.5366696665         -0.1863
C172       C    0.0520479582    0.5186546918    0.4732717029         -0.2974
C173       C    0.0040683192    0.4946476349    0.4372453232         -0.2974
C174       C    0.9515324281    0.4689738091    0.4646884467         -0.1863
C175       C    0.9469373767    0.4664622149    0.5281014523         -0.2976
C176       C    0.9949517339    0.4904347146    0.5641310962         -0.2975
C177       C    0.9036346091    0.4464131780    0.4286232471         -0.1124
C178       C    0.9084739956    0.4487877859    0.3652601860         -0.3265
C179       C    0.8607238388    0.4275280672    0.3289945558         -0.2972
C180       C    0.8081452365    0.4041213154    0.3561331328         -0.2195
C181       C    0.8032558746    0.4011164378    0.4195445021         -0.3071
C182       C    0.8510246511    0.4221235543    0.4558093110         -0.3144
H184       H    0.2349559340    0.6151535177    0.5600555070         -0.0895
H185       H    0.1511495263    0.5686104667    0.4979385627         -0.1175
H186       H    0.0523435185    0.5220065278    0.6564593195         -0.1181
H187       H    0.1361786457    0.5689713337    0.7185609305         -0.0906
H188       H    0.0909994505    0.5379174790    0.4530352802         -0.1215
H189       H    0.0074027921    0.4962063639    0.3902801949         -0.1215
H190       H    0.9079915310    0.4471231819    0.5483577895         -0.1208
H191       H    0.9916185006    0.4888242253    0.6110941731         -0.1208
H192       H    0.9474175595    0.4664159358    0.3452065665         -0.1175
H193       H    0.8643048423    0.4293830313    0.2821057321         -0.0895
H195       H    0.7643297593    0.3834441214    0.4396284977         -0.0907
H196       H    0.8474753091    0.4199963072    0.5027057234         -0.1182
C135       C    0.4040556654    0.8082109151    0.6438659796         -0.2197
C136       C    0.4499307800    0.8205580453    0.6070630848         -0.2969
C137       C    0.4718993209    0.8669209417    0.5685732949         -0.3267
C138       C    0.4478892936    0.9008635528    0.5668277867         -0.1122
C139       C    0.4013708273    0.8879684248    0.6028151031         -0.3145
C140       C    0.3795419460    0.8417089478    0.6414991819          -0.307
C141       C    0.4708874573    0.9480369368    0.5295440316         -0.1863
C142       C    0.5182390939    0.9615102205    0.4948302985         -0.2974
C143       C    0.5422488085    0.0094910316    0.4588057802         -0.2974
C144       C    0.5188963098    0.0440101740    0.4576006069         -0.1863
C145       C    0.4710276141    0.0300907149    0.4915738114         -0.2976
C146       C    0.4469832147    0.9820497399    0.5275611317         -0.2975
C147       C    0.5438704389    0.0927951209    0.4229460539         -0.1124
C148       C    0.5915451634    0.1063486216    0.3888293954         -0.3265
C149       C    0.6174905388    0.1558208992    0.3553021569         -0.2972
C150       C    0.5958780926    0.1918553265    0.3561340202         -0.2195
C151       C    0.5477635078    0.1779585407    0.3896736518         -0.3071
C152       C    0.5216465158    0.1283117479    0.4229521745         -0.3144
H154       H    0.4678314172    0.7955397313    0.6085464096         -0.0895
H155       H    0.5061115010    0.8763099323    0.5416015016         -0.1175
H156       H    0.3833159570    0.9128627546    0.6011339571         -0.1181
H157       H    0.3453187727    0.8323227865    0.6684752997         -0.0906
H158       H    0.5356210917    0.9360253672    0.4960070826         -0.1215
H159       H    0.5775204894    0.0196915577    0.4333625584         -0.1215
H160       H    0.4535787225    0.0555173194    0.4903332974         -0.1208
H161       H    0.4116784722    0.9718168032    0.5529527359         -0.1208
H162       H    0.6077104957    0.0798238752    0.3885228109         -0.1175
H163       H    0.6528346992    0.1659103926    0.3301506981         -0.0895
H165       H    0.5315415044    0.2044287816    0.3899516874         -0.0907
H166       H    0.4861078998    0.1180190720    0.4478384809         -0.1182
C105       C    0.4040556655    0.8082109165    0.8561340212         -0.2197
C106       C    0.4619167407    0.8425573123    0.8579545073         -0.2969
C107       C    0.4856402343    0.8921412828    0.8913222655         -0.3267
C108       C    0.4514533887    0.9074051630    0.9227699920         -0.1122
C109       C    0.3935273152    0.8735722905    0.9200770930         -0.3145
C110       C    0.3698151702    0.8238562352    0.8868895361          -0.307
C111       C    0.4753495875    0.9562268178    0.9574327277         -0.1863
C112       C    0.5333032290    0.9891592277    0.9612032864         -0.2974
C113       C    0.5573307225    0.0371726701    0.9971759149         -0.2974
C114       C    0.5233411518    0.0521683232    0.0294266095         -0.1863
C115       C    0.4653767878    0.0197190781    0.0249187775         -0.2976
C116       C    0.4413530044    0.9717159424    0.9888712874         -0.2975
C117       C    0.5474033852    0.0992795587    0.0667426347         -0.1124
C118       C    0.6053684407    0.1317201332    0.0708257749         -0.3265
C119       C    0.6296245329    0.1780918671    0.1092833809         -0.2972
C120       C    0.5958780925    0.1918553251    0.1438659786         -0.2195
C121       C    0.5378670075    0.1597943102    0.1392104246         -0.3071
C122       C    0.5136176636    0.1135754354    0.1004809562         -0.3144
H124       H    0.4872226975    0.8311308661    0.8348579034         -0.0895
H125       H    0.5285091115    0.9174189437    0.8930284898         -0.1175
H126       H    0.3682043447    0.8851266076    0.9429710276         -0.1181
H127       H    0.3269325595    0.7985763738    0.8851869854         -0.0906
H128       H    0.5584019008    0.9778377083    0.9375044992         -0.1215
H129       H    0.6002511483    0.0614118517    0.0002953920         -0.1215
H130       H    0.4402619841    0.0310755180    0.0485331401         -0.1208
H131       H    0.3984351919    0.9475098288    0.9856993062         -0.1208
H132       H    0.6303179457    0.1213180287    0.0454947385         -0.1175
H133       H    0.6725177718    0.2020370862    0.1124019830         -0.0895
H135       H    0.5128937454    0.1702023203    0.1644739465         -0.0907
H136       H    0.4707261611    0.0897871285    0.0970548975         -0.1182
C75        C    0.4040575002    0.5959442450    0.8561345857         -0.2197
C76        C    0.3716199386    0.5545455808    0.8983205953         -0.2969
C77        C    0.3950060882    0.5284428982    0.9318387910         -0.3267
C78        C    0.4508240900    0.5436946206    0.9230519610         -0.1122
C79        C    0.4830299269    0.5843949095    0.8800680639         -0.3145
C80        C    0.4596810998    0.6106596970    0.8467184600          -0.307
C81        C    0.4744885367    0.5186028633    0.9578179404         -0.1843
C82        C    0.4424882029    0.4789585144    0.0017999650         -0.2974
C83        C    0.4664539318    0.4549284612    0.0377998572         -0.2974
C84        C    0.5224637421    0.4706417552    0.0298184426         -0.1863
C85        C    0.5542534922    0.5096485433    0.9851884826         -0.2976
C86        C    0.5302438804    0.5336377865    0.9491350038         -0.2975
C87        C    0.5467897430    0.4477826623    0.0670162200         -0.1124
C88        C    0.5147367499    0.4085954996    0.1113394731         -0.3265
C89        C    0.5392402627    0.3866580129    0.1496861467         -0.2972
C90        C    0.5958762578    0.4041219966    0.1438654141         -0.2195
C91        C    0.6278003250    0.4428239794    0.0990067999         -0.3071
C92        C    0.6031979524    0.4645394368    0.0604354716         -0.3144
H94        H    0.3303521800    0.5434196456    0.9049842111         -0.0895
H95        H    0.3711106473    0.4980389807    0.9633901700         -0.1175
H96        H    0.5242495663    0.5953535995    0.8732156824         -0.1181
H97        H    0.4835895602    0.6410713135    0.8151587953         -0.0906
H98        H    0.4010820858    0.4675699170    0.0078305838         -0.1215
H99        H    0.4428822244    0.4258102345    0.0706428263         -0.1215
H100       H    0.5956386576    0.5209826235    0.9790755934         -0.1208
H101       H    0.5537970483    0.5627103523    0.9162489861         -0.1208
H102       H    0.4729012085    0.3959368536    0.1158631146         -0.1175
H103       H    0.5155521019    0.3577423887    0.1825681478         -0.0895
H105       H    0.6696180226    0.4554572136    0.0944130003         -0.0907
H106       H    0.6267718219    0.4932164763    0.0272978795         -0.1182
C45        C    0.4040575001    0.5959442464    0.6438654151         -0.2197
C46        C    0.3991653207    0.5450391668    0.6605987052         -0.2969
C47        C    0.4205264833    0.5196353439    0.6227490823         -0.3267
C48        C    0.4466862182    0.5451226765    0.5680971729         -0.1122
C49        C    0.4507055200    0.5955506544    0.5507903506         -0.3145
C50        C    0.4295291026    0.6210657039    0.5887867175          -0.307
C51        C    0.4693421453    0.5203789775    0.5311739798         -0.1863
C52        C    0.4664469570    0.4706899103    0.5494475731         -0.2974
C53        C    0.4904193920    0.4466575423    0.5134620250         -0.2974
C54        C    0.5173461198    0.4724079399    0.4592350138         -0.1863
C55        C    0.5194947491    0.5216444212    0.4404629102         -0.2976
C56        C    0.4954530410    0.5456447418    0.4764477355         -0.2975
C57        C    0.5426823998    0.4492001810    0.4241982129         -0.1124
C58        C    0.5401524422    0.3998240784    0.4430244403         -0.3265
C59        C    0.5666410906    0.3772014848    0.4089239516         -0.2972
C60        C    0.5958762579    0.4041219952    0.3561345847         -0.2195
C61        C    0.5978262903    0.4531685658    0.3368790355         -0.3071
C62        C    0.5710665292    0.4756285779    0.3708357317         -0.3144
H64        H    0.3799868049    0.5262898300    0.7011837610         -0.0895
H65        H    0.4172528699    0.4821144564    0.6353075882         -0.1175
H66        H    0.4696798235    0.6141866167    0.5100601790         -0.1181
H67        H    0.4328065658    0.6585974552    0.5762168835         -0.0906
H68        H    0.4467103098    0.4518227826    0.5897677361         -0.1215
H69        H    0.4885955562    0.4100337273    0.5271375376         -0.1215
H70        H    0.5391495566    0.5404780453    0.4000947788         -0.1208
H71        H    0.4972238989    0.5822347813    0.4627416080         -0.1208
H72        H    0.5187900395    0.3800997779    0.4822926400         -0.1175
H73        H    0.5648667724    0.3407229925    0.4229154429         -0.0895
H75        H    0.6191271196    0.4728825465    0.2975874567         -0.0907
H76        H    0.5725370232    0.5119338967    0.3566944224         -0.1182
loop_
_geom_bond_atom_site_label_1
_geom_bond_atom_site_label_2
_geom_bond_distance
_geom_bond_site_symmetry_2
_ccdc_geom_bond_type
O1         Al16 1.762       .   S
O1           C7 1.272       .   A
O2         Al17 1.762       .   S
O2           C8 1.272       .   A
O3         Al18 1.762       .   S
O3           C9 1.272       .   A
O4         Al18 1.762       .   S
O4           C7 1.272       .   A
O5         Al17 1.762       .   S
O5           C9 1.272       .   A
O6         Al16 1.762       .   S
O6           C8 1.272       .   A
C7         C210 1.540       .   S
C8         C105 1.540       .   S
C9          C75 1.540       .   S
O10        Al16 1.762       .   S
O10         C20 1.272       .   A
O11        Al17 1.762       .   S
O11         C21 1.272       .   A
O12        Al18 1.762       .   S
O12         C22 1.272       .   A
O13        Al18 1.762       .   S
O13         C20 1.272       .   A
O14        Al17 1.762       .   S
O14         C22 1.272       .   A
O15        Al16 1.762       .   S
O15         C21 1.272       .   A
Al16        O19 1.735       .   S
Al17        O19 1.735       .   S
Al18        O19 1.735       .   S
C20        C165 1.540       .   S
C21        C135 1.540       .   S
C22         C45 1.540       .   S
O23        Al38 1.762       .   S
O23         C29 1.272       .   A
O24        Al39 1.762       .   S
O24         C30 1.272       .   A
O25        Al40 1.762       .   S
O25         C31 1.272       .   A
O26        Al40 1.762       .   S
O26         C29 1.272       .   A
O27        Al39 1.762       .   S
O27         C31 1.272       .   A
O28        Al38 1.762       .   S
O28         C30 1.272       .   A
C29        C180 1.540   1_655   S
C30        C150 1.540   1_545   S
C31         C60 1.540       .   S
O32        Al38 1.762       .   S
O32         C42 1.272       .   A
O33        Al39 1.762       .   S
O33         C43 1.272       .   A
O34        Al40 1.762       .   S
O34         C44 1.272       .   A
O35        Al40 1.762       .   S
O35         C42 1.272       .   A
O36        Al39 1.762       .   S
O36         C44 1.272       .   A
O37        Al38 1.762       .   S
O37         C43 1.272       .   A
Al38        O41 1.735       .   S
Al39        O41 1.735       .   S
Al40        O41 1.735       .   S
C42        C195 1.540   1_654   S
C43        C120 1.540   1_544   S
C44         C90 1.540   1_554   S
C196       C195 1.539       .   A
C195       C200 1.540       .   A
H214       C196 1.140       .   S
C197       C196 1.540       .   A
H215       C197 1.140       .   S
C197       C198 1.540       .   A
C201       C198 1.539       .   S
C199       C198 1.540       .   A
H216       C199 1.141       .   S
C200       C199 1.541       .   A
H217       C200 1.141       .   S
C206       C201 1.539       .   A
C202       C201 1.540       .   A
H218       C202 1.140       .   S
C202       C203 1.539       .   A
H219       C203 1.140       .   S
C204       C203 1.540       .   A
C207       C204 1.539       .   S
C205       C204 1.540       .   A
H220       C205 1.140       .   S
C206       C205 1.540       .   A
H221       C206 1.140       .   S
C212       C207 1.540       .   A
C207       C208 1.539       .   A
H222       C208 1.140       .   S
C209       C208 1.540       .   A
H223       C209 1.139       .   S
C210       C209 1.540       .   A
C211       C210 1.541       .   A
C212       C211 1.541       .   A
C211       H225 1.139       .   S
C212       H226 1.139       .   S
C166       C165 1.539       .   A
C165       C170 1.540       .   A
H184       C166 1.140       .   S
C167       C166 1.540       .   A
H185       C167 1.140       .   S
C167       C168 1.540       .   A
C171       C168 1.539       .   S
C169       C168 1.540       .   A
H186       C169 1.141       .   S
C170       C169 1.541       .   A
H187       C170 1.141       .   S
C176       C171 1.539       .   A
C172       C171 1.540       .   A
H188       C172 1.140       .   S
C172       C173 1.539       .   A
H189       C173 1.140       .   S
C174       C173 1.540       .   A
C177       C174 1.539       .   S
C175       C174 1.540       .   A
H190       C175 1.140       .   S
C176       C175 1.540       .   A
H191       C176 1.140       .   S
C182       C177 1.540       .   A
C177       C178 1.539       .   A
H192       C178 1.140       .   S
C179       C178 1.540       .   A
H193       C179 1.139       .   S
C180       C179 1.540       .   A
C181       C180 1.541       .   A
C182       C181 1.541       .   A
C181       H195 1.139       .   S
C182       H196 1.139       .   S
C136       C135 1.539       .   A
C135       C140 1.540       .   A
H154       C136 1.140       .   S
C137       C136 1.540       .   A
H155       C137 1.140       .   S
C137       C138 1.540       .   A
C141       C138 1.539       .   S
C139       C138 1.540       .   A
H156       C139 1.141       .   S
C140       C139 1.541       .   A
H157       C140 1.141       .   S
C146       C141 1.539       .   A
C142       C141 1.540       .   A
H158       C142 1.140       .   S
C142       C143 1.539       .   A
H159       C143 1.140       .   S
C144       C143 1.540       .   A
C147       C144 1.539       .   S
C145       C144 1.540       .   A
H160       C145 1.140       .   S
C146       C145 1.540       .   A
H161       C146 1.140       .   S
C152       C147 1.540       .   A
C147       C148 1.539       .   A
H162       C148 1.140       .   S
C149       C148 1.540       .   A
H163       C149 1.139       .   S
C150       C149 1.540       .   A
C151       C150 1.541       .   A
C152       C151 1.541       .   A
C151       H165 1.139       .   S
C152       H166 1.139       .   S
C106       C105 1.539       .   A
C105       C110 1.540       .   A
H124       C106 1.140       .   S
C107       C106 1.540       .   A
H125       C107 1.140       .   S
C107       C108 1.540       .   A
C111       C108 1.539       .   S
C109       C108 1.540       .   A
H126       C109 1.141       .   S
C110       C109 1.541       .   A
H127       C110 1.141       .   S
C116       C111 1.539       .   A
C112       C111 1.540       .   A
H128       C112 1.140       .   S
C112       C113 1.539       .   A
H129       C113 1.140       .   S
C114       C113 1.540       .   A
C117       C114 1.539       .   S
C115       C114 1.540       .   A
H130       C115 1.140       .   S
C116       C115 1.540       .   A
H131       C116 1.140       .   S
C122       C117 1.540       .   A
C117       C118 1.539       .   A
H132       C118 1.140       .   S
C119       C118 1.540       .   A
H133       C119 1.139       .   S
C120       C119 1.540       .   A
C121       C120 1.541       .   A
C122       C121 1.541       .   A
C121       H135 1.139       .   S
C122       H136 1.139       .   S
C76         C75 1.539       .   A
C75         C80 1.540       .   A
H94         C76 1.140       .   S
C77         C76 1.540       .   A
H95         C77 1.140       .   S
C77         C78 1.540       .   A
C81         C78 1.539       .   S
C79         C78 1.540       .   A
H96         C79 1.141       .   S
C80         C79 1.541       .   A
H97         C80 1.141       .   S
C86         C81 1.539       .   A
C82         C81 1.540       .   A
H98         C82 1.140       .   S
C82         C83 1.539       .   A
H99         C83 1.140       .   S
C84         C83 1.540       .   A
C87         C84 1.539       .   S
C85         C84 1.540       .   A
H100        C85 1.140       .   S
C86         C85 1.540       .   A
H101        C86 1.140       .   S
C92         C87 1.540       .   A
C87         C88 1.539       .   A
H102        C88 1.140       .   S
C89         C88 1.540       .   A
H103        C89 1.139       .   S
C90         C89 1.540       .   A
C91         C90 1.541       .   A
C92         C91 1.541       .   A
C91        H105 1.139       .   S
C92        H106 1.139       .   S
C46         C45 1.539       .   A
C45         C50 1.540       .   A
H64         C46 1.140       .   S
C47         C46 1.540       .   A
H65         C47 1.140       .   S
C47         C48 1.540       .   A
C51         C48 1.539       .   S
C49         C48 1.540       .   A
H66         C49 1.141       .   S
C50         C49 1.541       .   A
H67         C50 1.141       .   S
C56         C51 1.539       .   A
C52         C51 1.540       .   A
H68         C52 1.140       .   S
C52         C53 1.539       .   A
H69         C53 1.140       .   S
C54         C53 1.540       .   A
C57         C54 1.539       .   S
C55         C54 1.540       .   A
H70         C55 1.140       .   S
C56         C55 1.540       .   A
H71         C56 1.140       .   S
C62         C57 1.540       .   A
C57         C58 1.539       .   A
H72         C58 1.140       .   S
C59         C58 1.540       .   A
H73         C59 1.139       .   S
C60         C59 1.540       .   A
C61         C60 1.541       .   A
C62         C61 1.541       .   A
C61         H75 1.139       .   S
C62         H76 1.139       .   S
