data_acs_v1-6c_Al_1_1-1B_4Br_Ch
_audit_creation_date              2021-04-19
_audit_creation_method            'tobacco_3.0'
_symmetry_space_group_name_H-M    'P1'
_symmetry_Int_Tables_number       1
_symmetry_cell_setting            triclinic
loop_
_symmetry_equiv_pos_as_xyz
  x,y,z
_cell_length_a                    16.95698650285135
_cell_length_b                    16.956985475496825
_cell_length_c                    13.44699835680655
_cell_angle_alpha                 90.00002355205581
_cell_angle_beta                  89.9999764444349
_cell_angle_gamma                 120.00086913039274
loop_
_atom_site_label
_atom_site_type_symbol
_atom_site_fract_x
_atom_site_fract_y
_atom_site_fract_z
_atom_site_charge
O1         O    0.1942315127    0.6627569368    0.8432327367          0.5462
O2         O    0.4684223732    0.8057652673    0.8432327037          0.5462
O3         O    0.3372392734    0.5315846368    0.8432326677          0.5462
O4         O    0.1942287639    0.5315759172    0.8432327037          0.5462
O5         O    0.4684209882    0.6627643139    0.8432326677          0.5462
O6         O    0.3372434072    0.8057666099    0.8432327367          0.5462
C7         C    0.1650030247    0.5825529688    0.8762214986          0.5462
C8         C    0.4174470312    0.8349930540    0.8762214986          0.5462
C9         C    0.4174499017    0.5825540196    0.8762214351          0.5462
O10        O    0.1942315336    0.6627569160    0.6567673313          0.5462
O11        O    0.4684223940    0.8057652465    0.6567672983          0.5462
O12        O    0.3372392943    0.5315846160    0.6567672623          0.5462
O13        O    0.1942287848    0.5315758964    0.6567672983          0.5462
O14        O    0.4684210090    0.6627642930    0.6567672623          0.5462
O15        O    0.3372434281    0.8057665890    0.6567673313          0.5462
Al16      Al    0.2742483042    0.7257623254    0.7500074663             1.0
Al17      Al    0.4514224537    0.7257640669    0.7500074217             1.0
Al18      Al    0.2742410369    0.5485854023    0.7500074217             1.0
O19        O    0.3333062014    0.6667016616    0.7500074366          0.5452
C20        C    0.1650030530    0.5825529406    0.6237785437          0.5462
C21        C    0.4174470594    0.8349930258    0.6237785437          0.5462
C22        C    0.4174499300    0.5825539913    0.6237784802          0.5462
O23        O    0.8057028256    0.3373087287    0.3432326700          0.5462
O24        O    0.5315119652    0.1943003982    0.3432327030          0.5462
O25        O    0.6626950649    0.4684810287    0.3432327390          0.5462
O26        O    0.8057055744    0.4684897483    0.3432327030          0.5462
O27        O    0.5315133502    0.3373013517    0.3432327390          0.5462
O28        O    0.6626909311    0.1942990557    0.3432326700          0.5462
C29        C    0.8349313063    0.4175127041    0.3762214576          0.5462
C30        C    0.5824872998    0.1650726189    0.3762214576          0.5462
C31        C    0.5824844292    0.4175116534    0.3762215211          0.5462
O32        O    0.8057028465    0.3373087079    0.1567672646          0.5462
O33        O    0.5315119861    0.1943003774    0.1567672976          0.5462
O34        O    0.6626950858    0.4684810079    0.1567673336          0.5462
O35        O    0.8057055953    0.4684897275    0.1567672976          0.5462
O36        O    0.5315133711    0.3373013308    0.1567673336          0.5462
O37        O    0.6626909520    0.1942990348    0.1567672646          0.5462
Al38      Al    0.7256860550    0.2743033193    0.2500074082             1.0
Al39      Al    0.5485119055    0.2743015778    0.2500074528             1.0
Al40      Al    0.7256933224    0.4514802424    0.2500074528             1.0
O41        O    0.6666281578    0.3333639831    0.2500074379          0.5462
C42        C    0.8349313345    0.4175126759    0.1237785027          0.5462
C43        C    0.5824873280    0.1650725907    0.1237785027          0.5462
C44        C    0.5824844575    0.4175116252    0.1237785662          0.5462
C95        C    0.0678973384    0.4777815695    0.0162238521         -0.4693
C96        C    0.0785598405    0.5393302119    0.9410547344         -0.3725
C97        C    0.0105934300    0.5616666499    0.9250444523         -0.4704
C98        C    0.9320621904    0.5223129455    0.9837883974         -0.4705
C99        C    0.9213745187    0.4607354329    0.0589452670         -0.3712
C100       C    0.9893949119    0.4384666740    0.0749900762         -0.4724
Br101     Br    0.9728011047    0.3547621640    0.1769139625         -0.4579
Br102     Br    0.1612979815    0.4494099598    0.0363696317         -0.4586
Br103     Br    0.8387845614    0.5507202254    0.9636666803         -0.4582
Br104     Br    0.0272378992    0.6454333293    0.8233158572         -0.4581
C85        C    0.0854689336    0.5339938071    0.4558349253         -0.4693
C86        C    0.0785598191    0.5393301810    0.5589452603         -0.3725
C87        C    0.9929251435    0.5051451306    0.6030504843         -0.4704
C88        C    0.9144749940    0.4660507994    0.5441776357         -0.4705
C89        C    0.9213745401    0.4607354637    0.4410547410         -0.3712
C90        C    0.0070247919    0.4948653293    0.3969760614         -0.4724
Br91      Br    0.0141303334    0.4869759345    0.2573670467         -0.4579
Br92      Br    0.2022321032    0.5803598567    0.3985395529         -0.4586
Br93      Br    0.7978251591    0.4196894547    0.6014643372         -0.4582
Br94      Br    0.9858011288    0.5128755282    0.7425741419         -0.4581
C75        C    0.4592097175    0.9992520260    0.5905549226         -0.4693
C76        C    0.4606704532    0.9214395809    0.5589443106         -0.3725
C77        C    0.5016488871    0.9223918593    0.4683908523         -0.4704
C78        C    0.5407451046    0.0008112231    0.4094690440         -0.4705
C79        C    0.5392639060    0.0786260638    0.4410556907         -0.3712
C80        C    0.4983393579    0.0776744061    0.5316614481         -0.4724
Br81      Br    0.4971427449    0.1838198356    0.5721397515         -0.4579
Br82      Br    0.4037427079    0.9959363910    0.7136594377         -0.4586
Br83      Br    0.5961999880    0.0041060386    0.2865029712         -0.4582
Br84      Br    0.5029950028    0.8163832523    0.4280153842         -0.4581
C65        C    0.5450935679    0.9957234930    0.9150581521         -0.4693
C66        C    0.4606704223    0.9214395594    0.9410556841         -0.3725
C67        C    0.4155112180    0.9259307977    0.0259794822         -0.4704
C68        C    0.4548207084    0.0043414219    0.0849152340         -0.4705
C69        C    0.5392639369    0.0786260853    0.0589443172         -0.3712
C70        C    0.5843765785    0.0741395946    0.9739616550         -0.4724
Br71      Br    0.6985739734    0.1755440993    0.9410251139         -0.4579
Br72      Br    0.6041636699    0.9877021064    0.7994393891         -0.4586
Br73      Br    0.3957514885    0.0123414544    0.2003964049         -0.4582
Br74      Br    0.3013211624    0.8246689561    0.0588038968         -0.4581
C55        C    0.5174084145    0.5229712948    0.1005379862         -0.4693
C56        C    0.5392624081    0.4607357275    0.0589441047         -0.3725
C57        C    0.5219312750    0.4379896935    0.9582658351         -0.4704
C58        C    0.4825592934    0.4771108138    0.8994629409         -0.4705
C59        C    0.4606719512    0.5393299172    0.9410558967         -0.3712
C60        C    0.4780810838    0.5621190603    0.0417299984         -0.4724
Br61      Br    0.4474244008    0.6461837972    0.0958477423         -0.4579
Br62      Br    0.5421988155    0.5527059351    0.2367769617         -0.4586
Br63      Br    0.4578497945    0.4474177376    0.7633329612         -0.4582
Br64      Br    0.5527117064    0.3541119514    0.9041339353         -0.4581
C45        C    0.4676121408    0.4656845431    0.5949663774         -0.4693
C46        C    0.4606719293    0.5393299391    0.5589441167         -0.3725
C47        C    0.4929205771    0.5735084259    0.4638073446         -0.4704
C48        C    0.5322893211    0.5343682170    0.4050295759         -0.4705
C49        C    0.5392624299    0.4607357056    0.4410558847         -0.3712
C50        C    0.5069371206    0.4265230371    0.5361764202         -0.4724
Br51      Br    0.5176367848    0.3271502728    0.5829018259         -0.4579
Br52      Br    0.4228678293    0.4207157893    0.7237005321         -0.4586
Br53      Br    0.5769393402    0.5792906252    0.2763907273         -0.4582
Br54      Br    0.4820857278    0.6727031740    0.4170353188         -0.4581
loop_
_geom_bond_atom_site_label_1
_geom_bond_atom_site_label_2
_geom_bond_distance
_geom_bond_site_symmetry_2
_ccdc_geom_bond_type
O1         Al16 1.762       .   S
O1           C7 1.272       .   A
O2         Al17 1.762       .   S
O2           C8 1.272       .   A
O3         Al18 1.762       .   S
O3           C9 1.272       .   A
O4         Al18 1.762       .   S
O4           C7 1.272       .   A
O5         Al17 1.762       .   S
O5           C9 1.272       .   A
O6         Al16 1.762       .   S
O6           C8 1.272       .   A
C7          C96 1.540       .   S
C8          C66 1.540       .   S
C9          C59 1.540       .   S
O10        Al16 1.762       .   S
O10         C20 1.272       .   A
O11        Al17 1.762       .   S
O11         C21 1.272       .   A
O12        Al18 1.762       .   S
O12         C22 1.272       .   A
O13        Al18 1.762       .   S
O13         C20 1.272       .   A
O14        Al17 1.762       .   S
O14         C22 1.272       .   A
O15        Al16 1.762       .   S
O15         C21 1.272       .   A
Al16        O19 1.735       .   S
Al17        O19 1.735       .   S
Al18        O19 1.735       .   S
C20         C86 1.540       .   S
C21         C76 1.540       .   S
C22         C46 1.540       .   S
O23        Al38 1.762       .   S
O23         C29 1.272       .   A
O24        Al39 1.762       .   S
O24         C30 1.272       .   A
O25        Al40 1.762       .   S
O25         C31 1.272       .   A
O26        Al40 1.762       .   S
O26         C29 1.272       .   A
O27        Al39 1.762       .   S
O27         C31 1.272       .   A
O28        Al38 1.762       .   S
O28         C30 1.272       .   A
C29         C89 1.540   1_655   S
C30         C79 1.540   1_545   S
C31         C49 1.540       .   S
O32        Al38 1.762       .   S
O32         C42 1.272       .   A
O33        Al39 1.762       .   S
O33         C43 1.272       .   A
O34        Al40 1.762       .   S
O34         C44 1.272       .   A
O35        Al40 1.762       .   S
O35         C42 1.272       .   A
O36        Al39 1.762       .   S
O36         C44 1.272       .   A
O37        Al38 1.762       .   S
O37         C43 1.272       .   A
Al38        O41 1.735       .   S
Al39        O41 1.735       .   S
Al40        O41 1.735       .   S
C42         C99 1.540   1_654   S
C43         C69 1.540   1_544   S
C44         C56 1.540   1_554   S
C95         C96 1.398       .   A
C95        C100 1.398       .   A
C95       Br102 1.891       .   S
C96         C97 1.398       .   A
C97         C98 1.398       .   A
C97       Br104 1.889       .   S
C98         C99 1.398       .   A
C98       Br103 1.889       .   S
C99        C100 1.398       .   A
C100      Br101 1.890       .   S
C85         C86 1.398       .   A
C85         C90 1.398       .   A
C85        Br92 1.891       .   S
C86         C87 1.398       .   A
C87         C88 1.398       .   A
C87        Br94 1.889       .   S
C88         C89 1.398       .   A
C88        Br93 1.889       .   S
C89         C90 1.398       .   A
C90        Br91 1.890       .   S
C75         C76 1.398       .   A
C75         C80 1.398       .   A
C75        Br82 1.891       .   S
C76         C77 1.398       .   A
C77         C78 1.398       .   A
C77        Br84 1.889       .   S
C78         C79 1.398       .   A
C78        Br83 1.889       .   S
C79         C80 1.398       .   A
C80        Br81 1.890       .   S
C65         C66 1.398       .   A
C65         C70 1.398       .   A
C65        Br72 1.891       .   S
C66         C67 1.398       .   A
C67         C68 1.398       .   A
C67        Br74 1.889       .   S
C68         C69 1.398       .   A
C68        Br73 1.889       .   S
C69         C70 1.398       .   A
C70        Br71 1.890       .   S
C55         C56 1.398       .   A
C55         C60 1.398       .   A
C55        Br62 1.891       .   S
C56         C57 1.398       .   A
C57         C58 1.398       .   A
C57        Br64 1.889       .   S
C58         C59 1.398       .   A
C58        Br63 1.889       .   S
C59         C60 1.398       .   A
C60        Br61 1.890       .   S
C45         C46 1.398       .   A
C45         C50 1.398       .   A
C45        Br52 1.891       .   S
C46         C47 1.398       .   A
C47         C48 1.398       .   A
C47        Br54 1.889       .   S
C48         C49 1.398       .   A
C48        Br53 1.889       .   S
C49         C50 1.398       .   A
C50        Br51 1.890       .   S
