data_acs_v1-6c_Al_1_1-1B_2indole_Ch
_audit_creation_date              2021-04-19
_audit_creation_method            'tobacco_3.0'
_symmetry_space_group_name_H-M    'P1'
_symmetry_Int_Tables_number       1
_symmetry_cell_setting            triclinic
loop_
_symmetry_equiv_pos_as_xyz
  x,y,z
_cell_length_a                    23.352580034159846
_cell_length_b                    23.352580113815538
_cell_length_c                    18.518754319315093
_cell_angle_alpha                 90.00000731527513
_cell_angle_beta                  89.9999930165003
_cell_angle_gamma                 120.00076937610417
loop_
_atom_site_label
_atom_site_type_symbol
_atom_site_fract_x
_atom_site_fract_y
_atom_site_fract_z
_atom_site_charge
O1         O    0.3361630812    0.7676816040    0.6823010697          0.7025
O2         O    0.2323208353    0.5685838631    0.6823010619          0.7025
O3         O    0.4314111452    0.6638394701    0.6823010545          0.7025
O4         O    0.4314173743    0.7676835024    0.6823010626          0.7025
O5         O    0.3361579208    0.5685847624    0.6823010541          0.7025
O6         O    0.2323197665    0.6638366723    0.6823010693          0.7025
C7         C    0.3944014606    0.7889051841    0.6583469720          0.7025
C8         C    0.2110976698    0.6055985390    0.6583469714          0.7025
C9         C    0.3944008783    0.6055962669    0.6583469577          0.7025
O10        O    0.3361630769    0.7676816089    0.8176989457          0.7025
O11        O    0.2323208311    0.5685838680    0.8176989378          0.7025
O12        O    0.4314111409    0.6638394750    0.8176989304          0.7025
O13        O    0.4314173700    0.7676835073    0.8176989385          0.7025
O14        O    0.3361579165    0.5685847674    0.8176989301          0.7025
O15        O    0.2323197623    0.6638366772    0.8176989453          0.7025
Al16      Al    0.2904131127    0.7095791738    0.7499946066             1.0
Al17      Al    0.2904119750    0.5809279427    0.7499945966             1.0
Al18      Al    0.4190663479    0.7095843190    0.7499945970             1.0
O19        O    0.3332987934    0.6666954970    0.7499946001          0.7025
C20        C    0.3944014548    0.7889051908    0.8416530380          0.7025
C21        C    0.2110976640    0.6055985457    0.8416530373          0.7025
C22        C    0.3944008725    0.6055962735    0.8416530236          0.7025
O23        O    0.6637708962    0.2323843877    0.1823010398          0.7025
O24        O    0.7676131420    0.4314821285    0.1823010477          0.7025
O25        O    0.5685228322    0.3362265216    0.1823010551          0.7025
O26        O    0.5685166031    0.2323824893    0.1823010469          0.7025
O27        O    0.6637760566    0.4314812292    0.1823010554          0.7025
O28        O    0.7676142108    0.3362293193    0.1823010402          0.7025
C29        C    0.6055325183    0.2111608058    0.1583469475          0.7025
C30        C    0.7888363091    0.3944674509    0.1583469482          0.7025
C31        C    0.6055331005    0.3944697230    0.1583469619          0.7025
O32        O    0.6637708919    0.2323843926    0.3176989158          0.7025
O33        O    0.7676131378    0.4314821334    0.3176989236          0.7025
O34        O    0.5685228279    0.3362265265    0.3176989310          0.7025
O35        O    0.5685165988    0.2323824942    0.3176989229          0.7025
O36        O    0.6637760523    0.4314812341    0.3176989313          0.7025
O37        O    0.7676142066    0.3362293242    0.3176989162          0.7025
Al38      Al    0.7095208604    0.2904868228    0.2499945790             1.0
Al39      Al    0.7095219981    0.4191380539    0.2499945891             1.0
Al40      Al    0.5808676251    0.2904816775    0.2499945886             1.0
O41        O    0.6666351797    0.3333704995    0.2499945856          0.7025
C42        C    0.6055325125    0.2111608124    0.3416530135          0.7025
C43        C    0.7888363033    0.3944674575    0.3416530141          0.7025
C44        C    0.6055330948    0.3944697297    0.3416530278          0.7025
C135       C    0.0332474568    0.5284033732    0.9280299363         -0.0911
C136       C    0.9603327168    0.5100329736    0.9358944445         -0.6899
C137       C    0.9267417689    0.4755426413    0.0071168739         -0.1013
C138       C    0.9628848269    0.4598716725    0.0660644776         -0.0749
C139       C    0.0355468513    0.4774898083    0.0578832622          -0.695
C140       C    0.0693762695    0.5127292962    0.9869567512          -0.087
N141       N    0.0815940125    0.5656675348    0.8679596637         -0.6277
C142       C    0.1483265944    0.5742129488    0.8887310265         -0.4032
C143       C    0.1413293242    0.5408299243    0.9627316991         -0.5913
N144       N    0.9166599956    0.4291529110    0.1294906852         -0.7572
C145       C    0.8516073787    0.4258530477    0.1112689590         -0.3501
C146       C    0.8569266439    0.4541560033    0.0346329117         -0.5238
H147       H    0.9333523445    0.5219963727    0.8924245780         -0.1057
H148       H    0.0628198681    0.4665326771    0.1019278889         -0.1178
H150       H    0.1822211714    0.5387079768    0.9940973547          -0.155
H152       H    0.8171727695    0.4595858296    0.0049288591         -0.1562
H159       H    0.0706524036    0.5848906279    0.8181847267          0.0253
H160       H    0.9286653927    0.4132814392    0.1810575599          0.0529
C117       C    0.0669623768    0.5080870404    0.5183568946         -0.0911
C118       C    0.0315986972    0.4670886997    0.4507790562         -0.6899
C119       C    0.9611452762    0.4548113883    0.4381749876         -0.1013
C120       C    0.9279617917    0.4809160038    0.4894697903         -0.0749
C121       C    0.9629693340    0.5212244016    0.5575287958          -0.695
C122       C    0.0337848382    0.5341763806    0.5696403781          -0.087
N123       N    0.1368193788    0.5323891814    0.5442214536         -0.6287
C124       C    0.1483265795    0.5742129346    0.6112689610         -0.4032
C125       C    0.0841268170    0.5752996503    0.6282311498         -0.5913
N126       N    0.8608452097    0.4627864429    0.4592654553         -0.7572
C127       C    0.8516073936    0.4258530619    0.3887310245         -0.3501
C128       C    0.9136891436    0.4199514215    0.3751039037         -0.5238
H129       H    0.0562339957    0.4479489351    0.4121701757         -0.1057
H130       H    0.9387132574    0.5413182634    0.5954252420         -0.1178
H132       H    0.0761322234    0.6026362538    0.6746042446          -0.155
H134       H    0.9231056403    0.3957516032    0.3266177042         -0.1562
H141       H    0.1738029140    0.5227329888    0.5177862828          0.0253
H142       H    0.8252175100    0.4756182720    0.4834442793          0.0529
C99        C    0.4929185602    0.9336260953    0.5192933243         -0.0911
C100       C    0.5454762084    0.9757516825    0.4624685333         -0.6899
C101       C    0.5465325150    0.0396403624    0.4394249529         -0.1013
C102       C    0.4983594396    0.0599136186    0.4701894586         -0.0749
C103       C    0.4452624962    0.0174250322    0.5263518941          -0.695
C104       C    0.4447551053    0.9538900972    0.5500412505          -0.087
N105       N    0.4809118434    0.8709625259    0.5565967961         -0.6277
C106       C    0.4257863762    0.8516740527    0.6112699880         -0.4032
C107       C    0.4022447103    0.9027371572    0.6073420648         -0.5913
N108       N    0.5151642067    0.1262548739    0.4387518456         -0.7572
C109       C    0.5741475969    0.1483919438    0.3887299975         -0.3501
C110       C    0.5939942185    0.0944682969    0.3880764307         -0.5238
H111       H    0.5817351894    0.9611312757    0.4397856420         -0.1057
H112       H    0.4097767851    0.0326767718    0.5499292663         -0.1178
H114       H    0.3618945179    0.9031188465    0.6416086957          -0.155
H116       H    0.6367035448    0.0958799616    0.3568093773         -0.1562
H123       H    0.5086668524    0.8445670916    0.5469990192          0.0253
H124       H    0.4898918679    0.1546047300    0.4513570209          0.0529
C81        C    0.4386879020    0.9405013555    0.9697735220         -0.0911
C82        C    0.4284429274    0.9905889535    0.0139370244         -0.6899
C83        C    0.4911212951    0.0466653053    0.0494038839         -0.1013
C84        C    0.5590615961    0.0522179155    0.0420483494         -0.0749
C85        C    0.5692157180    0.0017104657    0.9986376104          -0.695
C86        C    0.5066067851    0.9460486464    0.9624283096          -0.087
N87        N    0.3894003898    0.8825641708    0.9249540782         -0.6277
C88        C    0.4257863615    0.8516740362    0.8887299988         -0.4032
C89        C    0.4990286447    0.8904670498    0.9121699941         -0.5913
N90        N    0.6096323296    0.1142783886    0.0802933290         -0.7572
C91        C    0.5741476116    0.1483919603    0.1112699867         -0.3501
C92        C    0.4998728196    0.1064008538    0.0929482606         -0.5238
H93        H    0.3780936327    0.9869485888    0.0191593036         -0.1057
H94        H    0.6198022193    0.0060501241    0.9924127777         -0.1178
H96        H    0.5399709198    0.8805426234    0.8942922852          -0.155
H98        H    0.4595705340    0.1183365835    0.1074798047         -0.1562
H105       H    0.3362326420    0.8664279769    0.9182374691          0.0253
H106       H    0.6635132442    0.1325933383    0.0836457998          0.0529
C63        C    0.5572274979    0.5075947762    0.0458606658         -0.0911
C64        C    0.5604023115    0.5714393670    0.0185249555         -0.6899
C65        C    0.5046335735    0.5613538075    0.9665328346         -0.1013
C66        C    0.4499275416    0.4926888068    0.9428628617         -0.0749
C67        C    0.4471606936    0.4288454991    0.9694667270          -0.695
C68        C    0.5025420326    0.4389511326    0.0221900856          -0.087
N69        N    0.6010541922    0.4993460733    0.0999999935         -0.6277
C70        C    0.5741470472    0.4258549324    0.1112685364         -0.4032
C71        C    0.5128801660    0.3874315838    0.0624677426         -0.5913
N72        N    0.4020214899    0.5007748344    0.8949696782         -0.7572
C73        C    0.4257869259    0.5742110641    0.8887314490         -0.3501
C74        C    0.4902508302    0.6128052920    0.9326872312         -0.5238
H75        H    0.6007271366    0.6226264421    0.0363634096         -0.1057
H76        H    0.4061596115    0.3776457572    0.9525740873         -0.1178
H78        H    0.4806366989    0.3314148951    0.0583241498          -0.155
H80        H    0.5204564444    0.6686843140    0.9400004029         -0.1562
H87        H    0.6443663956    0.5399099588    0.1280045679          0.0253
H88        H    0.3565569849    0.4601229224    0.8701473131          0.0529
C45        C    0.4921239588    0.4441146361    0.4515568682         -0.0911
C46        C    0.4284615547    0.4427886507    0.4762413709         -0.6899
C47        C    0.4383728389    0.4967453404    0.5308388100         -0.1013
C48        C    0.5066654932    0.5480119635    0.5593877389         -0.0749
C49        C    0.5702691055    0.5488841137    0.5354165664          -0.695
C50        C    0.5603947892    0.4953612828    0.4801047228          -0.087
N51        N    0.5007483583    0.4015414256    0.3960211738         -0.6277
C52        C    0.5741470567    0.4258549235    0.3887314316         -0.4032
C53        C    0.6120605507    0.4841388197    0.4414663910         -0.5913
N54        N    0.4987199919    0.5950621025    0.6088660340         -0.7572
C55        C    0.4257869164    0.5742110730    0.6112685539         -0.3501
C56        C    0.3873017160    0.5124233036    0.5632291127         -0.5238
H57        H    0.3775844811    0.4050480133    0.4547852356         -0.1057
H58        H    0.6212402325    0.5873631863    0.5559574431         -0.1178
H60        H    0.6679361922    0.5140439229    0.4491053791          -0.155
H62        H    0.3318226069    0.4847542152    0.5525171099         -0.1562
H69        H    0.4605774033    0.3607038646    0.3647050939          0.0253
H70        H    0.5392454889    0.6382559702    0.6370993433          0.0529
loop_
_geom_bond_atom_site_label_1
_geom_bond_atom_site_label_2
_geom_bond_distance
_geom_bond_site_symmetry_2
_ccdc_geom_bond_type
O1         Al16 1.762       .   S
O1           C7 1.272       .   A
O2         Al17 1.762       .   S
O2           C8 1.272       .   A
O3         Al18 1.762       .   S
O3           C9 1.272       .   A
O4         Al18 1.762       .   S
O4           C7 1.272       .   A
O5         Al17 1.762       .   S
O5           C9 1.272       .   A
O6         Al16 1.762       .   S
O6           C8 1.272       .   A
C7         C106 1.540       .   S
C8         C124 1.540       .   S
C9          C55 1.540       .   S
O10        Al16 1.762       .   S
O10         C20 1.272       .   A
O11        Al17 1.762       .   S
O11         C21 1.272       .   A
O12        Al18 1.762       .   S
O12         C22 1.272       .   A
O13        Al18 1.762       .   S
O13         C20 1.272       .   A
O14        Al17 1.762       .   S
O14         C22 1.272       .   A
O15        Al16 1.762       .   S
O15         C21 1.272       .   A
Al16        O19 1.735       .   S
Al17        O19 1.735       .   S
Al18        O19 1.735       .   S
C20         C88 1.540       .   S
C21        C142 1.540       .   S
C22         C73 1.540       .   S
O23        Al38 1.762       .   S
O23         C29 1.272       .   A
O24        Al39 1.762       .   S
O24         C30 1.272       .   A
O25        Al40 1.762       .   S
O25         C31 1.272       .   A
O26        Al40 1.762       .   S
O26         C29 1.272       .   A
O27        Al39 1.762       .   S
O27         C31 1.272       .   A
O28        Al38 1.762       .   S
O28         C30 1.272       .   A
C29         C91 1.540   1_544   S
C30        C145 1.540   1_654   S
C31         C70 1.540   1_554   S
O32        Al38 1.762       .   S
O32         C42 1.272       .   A
O33        Al39 1.762       .   S
O33         C43 1.272       .   A
O34        Al40 1.762       .   S
O34         C44 1.272       .   A
O35        Al40 1.762       .   S
O35         C42 1.272       .   A
O36        Al39 1.762       .   S
O36         C44 1.272       .   A
O37        Al38 1.762       .   S
O37         C43 1.272       .   A
Al38        O41 1.735       .   S
Al39        O41 1.735       .   S
Al40        O41 1.735       .   S
C42        C109 1.540   1_545   S
C43        C127 1.540   1_655   S
C44         C52 1.540       .   S
C140       C135 1.531       .   A
C136       C135 1.541       .   A
N141       C135 1.512       .   A
H147       C136 1.140       .   S
C136       C137 1.540       .   A
C137       C146 1.534       .   A
C137       C138 1.532       .   A
N144       C138 1.512       .   A
C139       C138 1.541       .   A
H148       C139 1.140       .   S
C140       C139 1.542       .   A
C140       C143 1.534       .   A
H159       N141 1.110       .   S
C142       N141 1.518       .   A
C143       C142 1.544       .   A
H150       C143 1.140       .   S
N144       C145 1.520       .   A
N144       H160 1.110       .   S
C146       C145 1.544       .   A
H152       C146 1.139       .   S
C122       C117 1.531       .   A
C118       C117 1.541       .   A
N123       C117 1.512       .   A
H129       C118 1.140       .   S
C118       C119 1.540       .   A
C119       C128 1.534       .   A
C119       C120 1.532       .   A
N126       C120 1.512       .   A
C121       C120 1.541       .   A
H130       C121 1.140       .   S
C122       C121 1.542       .   A
C122       C125 1.534       .   A
H141       N123 1.110       .   S
C124       N123 1.518       .   A
C125       C124 1.544       .   A
H132       C125 1.140       .   S
N126       C127 1.520       .   A
N126       H142 1.110       .   S
C128       C127 1.544       .   A
H134       C128 1.139       .   S
C104        C99 1.531       .   A
C100        C99 1.541       .   A
N105        C99 1.512       .   A
H111       C100 1.140       .   S
C100       C101 1.540       .   A
C101       C110 1.534       .   A
C101       C102 1.532       .   A
N108       C102 1.512       .   A
C103       C102 1.541       .   A
H112       C103 1.140       .   S
C104       C103 1.542       .   A
C104       C107 1.534       .   A
H123       N105 1.110       .   S
C106       N105 1.518       .   A
C107       C106 1.544       .   A
H114       C107 1.140       .   S
N108       C109 1.520       .   A
N108       H124 1.110       .   S
C110       C109 1.544       .   A
H116       C110 1.139       .   S
C86         C81 1.531       .   A
C82         C81 1.541       .   A
N87         C81 1.512       .   A
H93         C82 1.140       .   S
C82         C83 1.540       .   A
C83         C92 1.534       .   A
C83         C84 1.532       .   A
N90         C84 1.512       .   A
C85         C84 1.541       .   A
H94         C85 1.140       .   S
C86         C85 1.542       .   A
C86         C89 1.534       .   A
H105        N87 1.110       .   S
C88         N87 1.518       .   A
C89         C88 1.544       .   A
H96         C89 1.140       .   S
N90         C91 1.520       .   A
N90        H106 1.110       .   S
C92         C91 1.544       .   A
H98         C92 1.139       .   S
C68         C63 1.531       .   A
C64         C63 1.541       .   A
N69         C63 1.512       .   A
H75         C64 1.140       .   S
C64         C65 1.540       .   A
C65         C74 1.534       .   A
C65         C66 1.532       .   A
N72         C66 1.512       .   A
C67         C66 1.541       .   A
H76         C67 1.140       .   S
C68         C67 1.542       .   A
C68         C71 1.534       .   A
H87         N69 1.110       .   S
C70         N69 1.518       .   A
C71         C70 1.544       .   A
H78         C71 1.140       .   S
N72         C73 1.520       .   A
N72         H88 1.110       .   S
C74         C73 1.544       .   A
H80         C74 1.139       .   S
C50         C45 1.531       .   A
C46         C45 1.541       .   A
N51         C45 1.512       .   A
H57         C46 1.140       .   S
C46         C47 1.540       .   A
C47         C56 1.534       .   A
C47         C48 1.532       .   A
N54         C48 1.512       .   A
C49         C48 1.541       .   A
H58         C49 1.140       .   S
C50         C49 1.542       .   A
C50         C53 1.534       .   A
H69         N51 1.110       .   S
C52         N51 1.518       .   A
C53         C52 1.544       .   A
H60         C53 1.140       .   S
N54         C55 1.520       .   A
N54         H70 1.110       .   S
C56         C55 1.544       .   A
H62         C56 1.139       .   S
