data_acs_v1-6c_Al_1_Ch_1-1B_2CF3_Ch
_audit_creation_date              2021-04-19
_audit_creation_method            'tobacco_3.0'
_symmetry_space_group_name_H-M    'P1'
_symmetry_Int_Tables_number       1
_symmetry_cell_setting            triclinic
loop_
_symmetry_equiv_pos_as_xyz
  x,y,z
_cell_length_a                    17.046238837590778
_cell_length_b                    16.995038262406982
_cell_length_c                    13.974936546432138
_cell_angle_alpha                 89.53616099809913
_cell_angle_beta                  90.28764547418675
_cell_angle_gamma                 119.55804224433228
loop_
_atom_site_label
_atom_site_type_symbol
_atom_site_fract_x
_atom_site_fract_y
_atom_site_fract_z
_atom_site_charge
O1         O    0.3336418482    0.8040604771    0.8528447417         -0.8221
C2         C    0.4131670221    0.5841422385    0.6198630102          0.9714
O3         O    0.4689954399    0.6486871870    0.6644383076         -0.7133
O4         O    0.4702904280    0.8000707268    0.6473352207         -0.7492
Al5       Al    0.4576042686    0.7270445701    0.7550235199          1.4898
C6         C    0.4227622782    0.8345044120    0.6226466700           0.924
O7         O    0.2011955355    0.6663943023    0.6399264113         -0.8114
O8         O    0.1959191009    0.5323913168    0.8618296672          -0.747
Al9       Al    0.2731373795    0.7285168179    0.7460005644          1.9012
O10        O    0.1796972513    0.5269457908    0.6690088176         -0.7377
O11        O    0.3501320863    0.5265051523    0.8474742273         -0.7362
O12        O    0.3320549416    0.5291534892    0.6517332583         -0.7928
O13        O    0.4698550278    0.6652221278    0.8575730120         -0.7748
O14        O    0.3329681735    0.6651260435    0.7532102308         -1.1362
O15        O    0.4703251998    0.8203779472    0.8412849201         -0.7281
C16        C    0.4154365520    0.8385894653    0.8773193386          0.9791
C17        C    0.1642830090    0.5814873408    0.6240202365           0.943
Al18      Al    0.2722832369    0.5414606222    0.7573142217          1.5556
O19        O    0.3501178236    0.8193355334    0.6573428092         -0.7743
C20        C    0.4250351334    0.5811627144    0.8798586719          0.9847
C21        C    0.1591160054    0.5803138290    0.8762920728          0.9335
O22        O    0.1799382374    0.6535303522    0.8294938101         -0.8275
O23        O    0.8044560385    0.3341724907    0.1469057152         -0.8221
C24        C    0.5849999603    0.4138780619    0.3801515111          0.9714
O25        O    0.6495100328    0.4699124142    0.3353517556         -0.7133
O26        O    0.8002472947    0.4708646692    0.3521698101         -0.7492
Al27      Al    0.7277558164    0.4585440596    0.2446409448          1.4898
C28        C    0.8343856275    0.4230141911    0.3768824641           0.924
O29        O    0.6665441666    0.2009383925    0.3603281822         -0.8114
O30        O    0.5336191101    0.1964659209    0.1386839298          -0.747
Al31      Al    0.7288270070    0.2733096943    0.2540038711          1.9012
O32        O    0.5276830973    0.1797074881    0.3315459941         -0.7377
O33        O    0.5280324145    0.3512751189    0.1527639539         -0.7362
O34        O    0.5301468343    0.3326303089    0.3485344825         -0.7928
O35        O    0.6664607827    0.4712252281    0.1421836636         -0.7748
O36        O    0.6658289616    0.3335269498    0.2468014069         -1.1362
O37        O    0.8209555747    0.4713437840    0.1581812068         -0.7281
C38        C    0.8390728562    0.4162877944    0.1222145730          0.9791
C39        C    0.5818631571    0.1640087705    0.3764615662           0.943
Al40      Al    0.5425464678    0.2728574857    0.2430410730          1.5556
O41        O    0.8192170119    0.3501949207    0.3423494379         -0.7743
C42        C    0.5827029279    0.4264502573    0.1201381391          0.9847
C43        C    0.5813112750    0.1594543738    0.1242003289          0.9335
O44        O    0.6541602225    0.1800957042    0.1708234006         -0.8275
C125       C    0.9956196069    0.4455233376    0.0764880945         -0.0619
C126       C    0.9220864756    0.4588332913    0.0584265591         -0.0027
C127       C    0.9256537066    0.5123231636    0.9793616724         -0.0884
C128       C    0.0025692546    0.5510782859    0.9220185513         -0.0622
C129       C    0.0761023859    0.5377683321    0.9400800867         -0.0028
C130       C    0.0725391130    0.4842895088    0.0191529491         -0.0875
C131       C    0.1496575666    0.4677566672    0.0472791930          0.6163
H132       H    0.9925742323    0.4046601729    0.1376400104          0.1232
H133       H    0.0056146292    0.5919414505    0.8608666353          0.1234
C134       C    0.8485392111    0.5288670543    0.9512434043          0.6186
F135       F    0.1389557681    0.4353690611    0.1383257510          -0.233
F136       F    0.2302556020    0.5446346892    0.0448048363         -0.2063
F137       F    0.1542194048    0.4062019097    0.9909225240         -0.2031
F138       F    0.8439894763    0.5904178470    0.0076100962         -0.2036
F139       F    0.7679427117    0.4520033020    0.9536942485         -0.2068
F140       F    0.8592449676    0.5612657093    0.8602048221         -0.2336
C109       C    0.9725861750    0.4214033177    0.4542713462         -0.0619
C110       C    0.9215727606    0.4648963653    0.4421974228         -0.0027
C111       C    0.9492593740    0.5475305747    0.4890097754         -0.0884
C112       C    0.0260824616    0.5830982142    0.5466313544         -0.0622
C113       C    0.0770958759    0.5396051666    0.5587052778         -0.0028
C114       C    0.0494006904    0.4569650461    0.5119037922         -0.0875
C115       C    0.0979933513    0.4024666585    0.5224061744          0.6163
H116       H    0.9506734136    0.3577031843    0.4184125505          0.1232
H117       H    0.0479952229    0.6467983476    0.5824901500          0.1234
C118       C    0.9006581408    0.6020230513    0.4785182601          0.6186
F119       F    0.0449618076    0.3162901610    0.4916395574          -0.233
F120       F    0.1187823667    0.3962388304    0.6145328331         -0.2063
F121       F    0.1742738832    0.4374318101    0.4702693491         -0.2031
F122       F    0.8243821267    0.5670439678    0.5306555889         -0.2036
F123       F    0.8798786250    0.6082749154    0.3864042592         -0.2068
F124       F    0.9536811123    0.6881936377    0.5092957440         -0.2336
C93        C    0.4950958379    0.9199551810    0.4653992792         -0.0619
C94        C    0.4645619704    0.9210732660    0.5579678220         -0.0027
C95        C    0.4716177165    0.0019119127    0.5924178883         -0.0884
C96        C    0.5095295974    0.0785580015    0.5337089570         -0.0622
C97        C    0.5400634649    0.0774399165    0.4411404142         -0.0028
C98        C    0.5330191984    0.9966046834    0.4066973749         -0.0875
C99        C    0.5666813038    0.9884707610    0.3085471025          0.6163
H100       H    0.4898299346    0.8576868604    0.4395510826          0.1232
H101       H    0.5147955007    0.1408263221    0.5595571536          0.1234
C102       C    0.4379670906    0.0100492486    0.6905751877          0.6186
F103       F    0.5739118153    0.9124663093    0.3035831609          -0.233
F104       F    0.6494734190    0.0586468616    0.2892890707         -0.2063
F105       F    0.5102604512    0.9828129972    0.2377115379         -0.2031
F106       F    0.4943943537    0.0157016138    0.7613948842         -0.2036
F107       F    0.3551762595    0.9398962560    0.7098414003         -0.2068
F108       F    0.4307480585    0.0860571139    0.6955461565         -0.2336
C77        C    0.5446936201    0.9946729237    0.9220774092         -0.0619
C78        C    0.4586090251    0.9221014760    0.9415754395         -0.0027
C79        C    0.4113781358    0.9269235650    0.0215876179         -0.0884
C80        C    0.4520542068    0.0033709154    0.0794422584         -0.0622
C81        C    0.5381388018    0.0759423631    0.0599442281         -0.0028
C82        C    0.5853734227    0.0711130188    0.9799403070         -0.0875
C83        C    0.6803674951    0.1446337887    0.9538121511          0.6163
H84        H    0.5807688952    0.9903224292    0.8606980226          0.1232
H85        H    0.4159789318    0.0077214098    0.1408216450          0.1234
C86        C    0.3163877951    0.8533955399    0.0477240311          0.6186
F87        F    0.7185450119    0.1130650956    0.8907027594          -0.233
F88        F    0.7353881532    0.1734227421    0.0308771838         -0.2063
F89        F    0.6813787949    0.2167600971    0.9118149315         -0.2031
F90        F    0.3153942159    0.7812790542    0.0897138822         -0.2036
F91        F    0.2613541064    0.8246095823    0.9706811654         -0.2068
F92        F    0.2782140099    0.8849569779    0.1108416801         -0.2336
C61        C    0.4561793052    0.4579036073    0.9197775552         -0.0619
C62        C    0.4646418396    0.5422983993    0.9402177218         -0.0027
C63        C    0.5136681649    0.5891274148    0.0218079496         -0.0884
C64        C    0.5515587561    0.5497093643    0.0802192557         -0.0622
C65        C    0.5430962216    0.4653145723    0.0597790892         -0.0028
C66        C    0.4940587832    0.4184812034    0.9781968260         -0.0875
C67        C    0.4781069773    0.3251481364    0.9508720397          0.6163
H68        H    0.4180567783    0.4221099538    0.8571768406          0.1232
H69        H    0.5896812830    0.5855030179    0.1428199704          0.1234
C70        C    0.5296088576    0.6824561283    0.0491407006          0.6186
F71        F    0.4102517052    0.2859598460    0.8858212651          -0.233
F72        F    0.4533306591    0.2683503089    0.0268955660         -0.2063
F73        F    0.5513173130    0.3284527662    0.9105855549         -0.2031
F74        F    0.4563916194    0.6791339614    0.0894195005         -0.2036
F75        F    0.5544003976    0.7392669517    0.9731398167         -0.2068
F76        F    0.5974530164    0.7216400652    0.1141994399         -0.2336
C45        C    0.4538116043    0.4067314217    0.4855139004         -0.0619
C46        C    0.5390471667    0.4594113260    0.4442568750         -0.0027
C47        C    0.5852196285    0.5534187799    0.4595417344         -0.0884
C48        C    0.5443553781    0.5912888786    0.5145006208         -0.0622
C49        C    0.4591198157    0.5386089744    0.5557576462         -0.0028
C50        C    0.4129433304    0.4446041436    0.5404602820         -0.0875
C51        C    0.3188702217    0.3813355762    0.5792080268          0.6163
H52        H    0.4185393808    0.3345672965    0.4731057454          0.1232
H53        H    0.5796276015    0.6634530039    0.5269087759          0.1234
C54        C    0.6792887138    0.6166899704    0.4207814848          0.6186
F55        F    0.2810926771    0.3003942758    0.5337224258          -0.233
F56        F    0.2624665738    0.4148983820    0.5653780364         -0.2073
F57        F    0.3197396459    0.3634763246    0.6731843546         -0.2031
F58        F    0.6784017270    0.6345345646    0.3268083118         -0.2036
F59        F    0.7357051244    0.5831535469    0.4346176459         -0.2068
F60        F    0.7170622350    0.6976338938    0.4662545810         -0.2336
loop_
_geom_bond_atom_site_label_1
_geom_bond_atom_site_label_2
_geom_bond_distance
_geom_bond_site_symmetry_2
_ccdc_geom_bond_type
O1          C16 1.264       .   A
O1          Al9 1.910       .   S
C2          O12 1.307       .   A
C2           O3 1.213       .   A
C2          C49 1.622       .   S
O3          Al5 1.923       .   S
O4          Al5 1.887       .   S
O4           C6 1.257       .   A
Al5         O13 1.841       .   S
Al5         O14 1.849       .   S
Al5         O15 1.925       .   S
C6          O19 1.234       .   A
C6          C94 1.562       .   S
O7          Al9 1.883       .   S
O7          C17 1.279       .   A
O8         Al18 1.915       .   S
O8          C21 1.267       .   A
Al9         O14 1.814       .   S
Al9         O22 1.873       .   S
Al9         O19 1.904       .   S
O10        Al18 1.918       .   S
O10         C17 1.246       .   A
O11         C20 1.236       .   A
O11        Al18 1.930       .   S
O12        Al18 1.868       .   S
O13         C20 1.281       .   A
O14        Al18 1.829       .   S
O15         C16 1.232       .   A
C16         C78 1.532       .   S
C17        C113 1.582       .   S
C20         C62 1.424       .   S
C21         O22 1.287       .   A
C21        C129 1.521       .   S
O23         C38 1.264       .   A
O23        Al31 1.910       .   S
C24         O34 1.307       .   A
C24         O25 1.213       .   A
C24         C46 1.622       .   S
O25        Al27 1.923       .   S
O26        Al27 1.887       .   S
O26         C28 1.257       .   A
Al27        O35 1.841       .   S
Al27        O36 1.849       .   S
Al27        O37 1.925       .   S
C28         O41 1.234       .   A
C28        C110 1.582   1_655   S
O29        Al31 1.883       .   S
O29         C39 1.279       .   A
O30        Al40 1.915       .   S
O30         C43 1.267       .   A
Al31        O36 1.814       .   S
Al31        O44 1.873       .   S
Al31        O41 1.904       .   S
O32        Al40 1.918       .   S
O32         C39 1.246       .   A
O33         C42 1.236       .   A
O33        Al40 1.930       .   S
O34        Al40 1.868       .   S
O35         C42 1.281       .   A
O36        Al40 1.829       .   S
O37         C38 1.232       .   A
C38        C126 1.521   1_654   S
C39         C97 1.562   1_545   S
C42         C65 1.424   1_554   S
C43         O44 1.287       .   A
C43         C81 1.532   1_544   S
C125       C126 1.401       .   A
C125       C130 1.395       .   A
C125       H132 1.082       .   S
C126       C127 1.407       .   A
C127       C128 1.395       .   A
C127       C134 1.523       .   S
C128       C129 1.401       .   A
C128       H133 1.082       .   S
C129       C130 1.407       .   A
C130       C131 1.523       .   S
C131       F135 1.359       .   S
C131       F136 1.351       .   S
C131       F137 1.347       .   S
C134       F138 1.347       .   S
C134       F139 1.351       .   S
C134       F140 1.359       .   S
C109       C110 1.401       .   A
C109       C114 1.395       .   A
C109       H116 1.082       .   S
C110       C111 1.407       .   A
C111       C112 1.395       .   A
C111       C118 1.523       .   S
C112       C113 1.401       .   A
C112       H117 1.082       .   S
C113       C114 1.407       .   A
C114       C115 1.523       .   S
C115       F119 1.359       .   S
C115       F120 1.351       .   S
C115       F121 1.347       .   S
C118       F122 1.347       .   S
C118       F123 1.351       .   S
C118       F124 1.359       .   S
C93         C94 1.401       .   A
C93         C98 1.395       .   A
C93        H100 1.082       .   S
C94         C95 1.407       .   A
C95         C96 1.395       .   A
C95        C102 1.523       .   S
C96         C97 1.401       .   A
C96        H101 1.082       .   S
C97         C98 1.407       .   A
C98         C99 1.523       .   S
C99        F103 1.359       .   S
C99        F104 1.351       .   S
C99        F105 1.347       .   S
C102       F106 1.347       .   S
C102       F107 1.351       .   S
C102       F108 1.359       .   S
C77         C78 1.401       .   A
C77         C82 1.395       .   A
C77         H84 1.082       .   S
C78         C79 1.407       .   A
C79         C80 1.395       .   A
C79         C86 1.523       .   S
C80         C81 1.401       .   A
C80         H85 1.082       .   S
C81         C82 1.407       .   A
C82         C83 1.523       .   S
C83         F87 1.359       .   S
C83         F88 1.351       .   S
C83         F89 1.347       .   S
C86         F90 1.347       .   S
C86         F91 1.351       .   S
C86         F92 1.359       .   S
C61         C62 1.401       .   A
C61         C66 1.395       .   A
C61         H68 1.082       .   S
C62         C63 1.407       .   A
C63         C64 1.395       .   A
C63         C70 1.523       .   S
C64         C65 1.401       .   A
C64         H69 1.082       .   S
C65         C66 1.407       .   A
C66         C67 1.523       .   S
C67         F71 1.359       .   S
C67         F72 1.351       .   S
C67         F73 1.347       .   S
C70         F74 1.347       .   S
C70         F75 1.351       .   S
C70         F76 1.359       .   S
C45         C46 1.401       .   A
C45         C50 1.395       .   A
C45         H52 1.082       .   S
C46         C47 1.407       .   A
C47         C48 1.395       .   A
C47         C54 1.523       .   S
C48         C49 1.401       .   A
C48         H53 1.082       .   S
C49         C50 1.407       .   A
C50         C51 1.523       .   S
C51         F55 1.359       .   S
C51         F56 1.351       .   S
C51         F57 1.347       .   S
C54         F58 1.347       .   S
C54         F59 1.351       .   S
C54         F60 1.359       .   S
