data_acs_v1-6c_Al_1_Ch_1-1B_2thiophene_Ch
_audit_creation_date              2021-04-19
_audit_creation_method            'tobacco_3.0'
_symmetry_space_group_name_H-M    'P1'
_symmetry_Int_Tables_number       1
_symmetry_cell_setting            triclinic
loop_
_symmetry_equiv_pos_as_xyz
  x,y,z
_cell_length_a                    23.867094126536035
_cell_length_b                    23.790852770113844
_cell_length_c                    19.563771849181343
_cell_angle_alpha                 89.42799736676646
_cell_angle_beta                  90.34341550779217
_cell_angle_gamma                 119.5735922883343
loop_
_atom_site_label
_atom_site_type_symbol
_atom_site_fract_x
_atom_site_fract_y
_atom_site_fract_z
_atom_site_charge
O1         O    0.3335672712    0.7647796420    0.8233517843         -0.8164
C2         C    0.3903299321    0.6077930713    0.6571415374          0.9772
O3         O    0.4302160215    0.6538855887    0.6889537056         -0.7075
O4         O    0.4311645821    0.7620488243    0.6766115061         -0.7435
Al5       Al    0.4220935440    0.7098172025    0.7535919411          1.4898
C6         C    0.3972228177    0.7866599724    0.6589266620          0.9297
O7         O    0.2389431649    0.6665331556    0.6713141494         -0.8057
O8         O    0.2351565069    0.5706760791    0.8299358912         -0.7412
Al9       Al    0.2903387108    0.7108626795    0.7470659608          1.9012
O10        O    0.2235665098    0.5668890201    0.6921949984         -0.7319
O11        O    0.3453015509    0.5664879562    0.8197525386         -0.7304
O12        O    0.3323876490    0.5684849148    0.6799182009          -0.787
O13        O    0.4308353204    0.6655942224    0.8269029971         -0.7691
O14        O    0.3330627913    0.6655737499    0.7522943375         -1.1304
O15        O    0.4311953647    0.7764520200    0.8151394952         -0.7224
C16        C    0.3919946888    0.7894401339    0.8408413892          0.9848
C17        C    0.2125648922    0.6058789051    0.6600063120          0.9488
Al18      Al    0.2896993180    0.5772167656    0.7553023259          1.5556
O19        O    0.3453348283    0.7757995625    0.6836926002         -0.7686
C20        C    0.3988099075    0.6055243290    0.8428727693          0.9905
C21        C    0.2088777617    0.6049035883    0.8402113300          0.9393
O22        O    0.2237608581    0.6572387391    0.8067300412         -0.8218
O23        O    0.7652643633    0.3340137068    0.1764165812         -0.8164
C24        C    0.6085335489    0.3908171460    0.3428718337          0.9772
O25        O    0.6546179581    0.4308785679    0.3108514822         -0.7075
O26        O    0.7622820486    0.4315590813    0.3229292770         -0.7435
Al27      Al    0.7105019926    0.4228110281    0.2460967290          1.4898
C28        C    0.7866580823    0.3973616188    0.3406364529          0.9297
O29        O    0.6667427874    0.2387013599    0.3289217973         -0.8057
O30        O    0.5717980794    0.2356188733    0.1705403089         -0.7412
Al31      Al    0.7112382363    0.2904679502    0.2529379707          1.9012
O32        O    0.5675579300    0.2235403311    0.3083194279         -0.7319
O33        O    0.5678321637    0.3462120412    0.1804682664         -0.7304
O34        O    0.5693417564    0.3327847158    0.3203300177          -0.787
O35        O    0.6667229399    0.4319230620    0.1728712163         -0.7691
O36        O    0.6662513570    0.3334893190    0.2477163097         -1.1304
O37        O    0.7770706978    0.4320086329    0.1843651958         -0.7224
C38        C    0.7900018963    0.3926954461    0.1587261487          0.9848
C39        C    0.6062539845    0.2123034425    0.3404403805          0.9488
Al40      Al    0.5781875878    0.2901392787    0.2450270739          1.5556
O41        O    0.7758121444    0.3453548580    0.3160217810         -0.7686
C42        C    0.6068918252    0.3999410606    0.1571241754          0.9905
C43        C    0.6058561432    0.2091873834    0.1602451869          0.9393
O44        O    0.6578921098    0.2239133482    0.1935639756         -0.8218
C125       C    0.9415856689    0.5034426298    0.0239286332           0.161
C126       C    0.9830077917    0.5508440843    0.9671453646         -0.3292
C127       C    0.0458646451    0.5510579309    0.9492532488           0.205
C128       C    0.0660058648    0.5070584907    0.9879718062           0.027
C129       C    0.0249927036    0.4603014868    0.0453742296         -0.2265
C130       C    0.9612731501    0.4587974258    0.0619905152          0.1188
S131       S    0.8637231228    0.4864945540    0.0533909514         -0.0631
C132       C    0.8497263565    0.4229526602    0.1133114395         -0.0978
C133       C    0.9090336165    0.4127228923    0.1136557638         -0.2639
S134       S    0.1389939484    0.5167385694    0.9512330569         -0.0359
C135       C    0.1491533015    0.5746463742    0.8856260392         -0.1704
C136       C    0.0935335562    0.5903334028    0.8907418524         -0.1503
H137       H    0.9673594757    0.5829874662    0.9389476608          0.2033
H138       H    0.0402642867    0.4275976840    0.0730237352          0.1638
H140       H    0.9133507670    0.3753012252    0.1467034153          0.1889
H142       H    0.0873477099    0.6249595856    0.8548957922          0.1224
C109       C    0.0539856862    0.5636720596    0.5295491575           0.161
C110       C    0.0010645258    0.5688948804    0.4893325853         -0.3292
C111       C    0.9510094162    0.5072433599    0.4527482341           0.205
C112       C    0.9556102433    0.4448563145    0.4554908651           0.027
C113       C    0.0090410289    0.4399216603    0.4949512259         -0.2265
C114       C    0.0580708582    0.5010371464    0.5330858540          0.1188
S115       S    0.1159801545    0.6234394549    0.5824577009         -0.0631
C116       C    0.1502056572    0.5753488028    0.6132457070         -0.0978
C117       C    0.1133668867    0.5074125205    0.5806642185         -0.2639
S118       S    0.8877750492    0.3820792954    0.4113446166         -0.0359
C119       C    0.8490173174    0.4278917211    0.3873970579         -0.1704
C120       C    0.8902233401    0.4980609905    0.4133823715         -0.1503
H121       H    0.9983023324    0.6153821580    0.4879105650 0.20270000000000002
H122       H    0.0113639166    0.3932037881    0.4970465948          0.1638
H124       H    0.1246009787    0.4667924507    0.5912134038          0.1889
H126       H    0.8767395202    0.5375175037    0.4061993844          0.1224
C93        C    0.5118435527    0.9471336845    0.5327963086           0.161
C94        C    0.5698990914    0.0023965255    0.4956687993         -0.3292
C95        C    0.5565413125    0.0503463884    0.4550636854           0.205
C96        C    0.4881273291    0.0415356775    0.4510868912           0.027
C97        C    0.4299279730    0.9857688682    0.4874669575         -0.2265
C98        C    0.4436181039    0.9388355763    0.5296091797          0.1188
S99        S    0.5109452670    0.8866305733    0.5889345492         -0.0631
C100       C    0.4273313376    0.8479689871    0.6130523999         -0.0978
C101       C    0.3947385537    0.8818284295    0.5751769389         -0.2639
S102       S    0.4909681458    0.1078331306    0.4036407093         -0.0359
C103       C    0.5761454647    0.1509944279    0.3863146426         -0.1704
C104       C    0.6072706418    0.1128015342    0.4176447613         -0.1503
H105       H    0.6202069652    0.0082698334    0.4992213537          0.2033
H106       H    0.3797610170    0.9803310248    0.4845819879          0.1638
H108       H    0.3418386635    0.8675276329    0.5809478331          0.1889
H110       H    0.6609148731    0.1293339620    0.4152125877          0.1224
C77        C    0.4362473210    0.9433295226    0.9745874505           0.161
C78        C    0.4313729151    0.9942191180    0.0182794887         -0.3292
C79        C    0.4944191264    0.0458773674    0.0513457411           0.205
C80        C    0.5579271518    0.0447056942    0.0419623785           0.027
C81        C    0.5625912731    0.9932943286    0.9990226466         -0.2265
C82        C    0.4999214339    0.9426838425    0.9644185723          0.1188
S83        S    0.3744660530    0.8803154603    0.9243727949         -0.0631
C84        C    0.4227565531    0.8498166424    0.8867844802         -0.0978
C85        C    0.4925491982    0.8889548583    0.9144437386         -0.2639
S86        S    0.6218129937    0.1136854032    0.0834898875         -0.0359
C87        C    0.5750942789    0.1488108749    0.1143020959         -0.1704
C88        C    0.5037490674    0.1052123768    0.0931808477         -0.1503
H89        H    0.3840359950    0.9944496107    0.0246132963          0.2033
H90        H    0.6100896991    0.9935129338    0.9920207734          0.1638
H92        H    0.5336396510    0.8802573125    0.8991239854          0.1889
H94        H    0.4634743164    0.1162078869    0.1051628682          0.1224
C61        C    0.4780578679    0.5504729549    0.9959919264           0.161
C62        C    0.5116060072    0.5487023974    0.0628009807         -0.3292
C63        C    0.5289324053    0.4945067679    0.0692739687           0.205
C64        C    0.5116454811    0.4443758357    0.0121464424           0.027
C65        C    0.4773225466    0.4456546689    0.9457540895         -0.2265
C66        C    0.4615781590    0.5008944271    0.9384597105          0.1188
S67        S    0.4563534065    0.6094517961    0.9689298111         -0.0631
C68        C    0.4267417379    0.5779279042    0.8850562376         -0.0978
C69        C    0.4317711913    0.5160475735    0.8747800948         -0.2639
S70        S    0.5423401959    0.3913332213    0.0346131609         -0.0359
C71        C    0.5789599948    0.4275374853    0.1149407071         -0.1704
C72        C    0.5671838628    0.4849348752    0.1286685515         -0.1503
H73        H    0.5241332231    0.5862110593    0.1045048676          0.2033
H74        H    0.4654771756    0.4085988616    0.9036913110          0.1638
H76        H    0.4166336041    0.4860453086    0.8261642400          0.1889
H78        H    0.5857792422    0.5172141400    0.1755167633          0.1224
C45        C    0.4425716599    0.4863750309    0.5449824721           0.161
C46        C    0.4462759887    0.4271830953    0.5198011838         -0.3292
C47        C    0.4994283456    0.4407402191    0.4673383980           0.205
C48        C    0.5447285914    0.5099021295    0.4409234876           0.027
C49        C    0.5404378863    0.5689532619    0.4654341081         -0.2265
C50        C    0.4884404741    0.5556431568    0.5192927948          0.1188
S51        S    0.3910100119    0.4891850113    0.6095657504         -0.0631
C52        C    0.4229495346    0.5753569983    0.6101608643         -0.0978
C53        C    0.4772751170    0.6069634641    0.5561135787         -0.2639
S54        S    0.6028188971    0.5084319243    0.3842476047         -0.0359
C55        C    0.5759139465    0.4232532189    0.3898525069         -0.1704
C56        C    0.5167079292    0.3906490395    0.4379380385         -0.1503
H57        H    0.4124558848    0.3763606976    0.5399382211          0.2033
H58        H    0.5747559214    0.6198853139    0.4459032406          0.1638
H60        H    0.5062490625    0.6611530357    0.5455336417          0.1889
H62        H    0.4902495522    0.3369772083    0.4515535446          0.1224
loop_
_geom_bond_atom_site_label_1
_geom_bond_atom_site_label_2
_geom_bond_distance
_geom_bond_site_symmetry_2
_ccdc_geom_bond_type
O1          C16 1.264       .   A
O1          Al9 1.910       .   S
C2          O12 1.307       .   A
C2           O3 1.213       .   A
C2          C52 1.632       .   S
O3          Al5 1.923       .   S
O4          Al5 1.887       .   S
O4           C6 1.257       .   A
Al5         O13 1.841       .   S
Al5         O14 1.849       .   S
Al5         O15 1.925       .   S
C6          O19 1.234       .   A
C6         C100 1.548       .   S
O7          Al9 1.883       .   S
O7          C17 1.279       .   A
O8         Al18 1.915       .   S
O8          C21 1.267       .   A
Al9         O14 1.814       .   S
Al9         O22 1.873       .   S
Al9         O19 1.904       .   S
O10        Al18 1.918       .   S
O10         C17 1.246       .   A
O11         C20 1.236       .   A
O11        Al18 1.930       .   S
O12        Al18 1.868       .   S
O13         C20 1.281       .   A
O14        Al18 1.829       .   S
O15         C16 1.232       .   A
C16         C84 1.545       .   S
C17        C116 1.584       .   S
C20         C68 1.404       .   S
C21         O22 1.287       .   A
C21        C135 1.526       .   S
O23         C38 1.264       .   A
O23        Al31 1.910       .   S
C24         O34 1.307       .   A
C24         O25 1.213       .   A
C24         C55 1.632       .   S
O25        Al27 1.923       .   S
O26        Al27 1.887       .   S
O26         C28 1.257       .   A
Al27        O35 1.841       .   S
Al27        O36 1.849       .   S
Al27        O37 1.925       .   S
C28         O41 1.234       .   A
C28        C119 1.584   1_655   S
O29        Al31 1.883       .   S
O29         C39 1.279       .   A
O30        Al40 1.915       .   S
O30         C43 1.267       .   A
Al31        O36 1.814       .   S
Al31        O44 1.873       .   S
Al31        O41 1.904       .   S
O32        Al40 1.918       .   S
O32         C39 1.246       .   A
O33         C42 1.236       .   A
O33        Al40 1.930       .   S
O34        Al40 1.868       .   S
O35         C42 1.281       .   A
O36        Al40 1.829       .   S
O37         C38 1.232       .   A
C38        C132 1.526   1_654   S
C39        C103 1.548   1_545   S
C42         C71 1.404   1_554   S
C43         O44 1.287       .   A
C43         C87 1.545   1_544   S
S131       C125 1.794       .   A
C130       C125 1.541       .   A
C126       C125 1.540       .   A
H137       C126 1.140       .   S
C126       C127 1.540       .   A
C127       C136 1.557       .   A
C127       C128 1.542       .   A
S134       C128 1.794       .   A
C129       C128 1.540       .   A
H138       C129 1.140       .   S
C130       C129 1.540       .   A
C130       C133 1.556       .   A
S131       C132 1.801       .   A
C133       C132 1.550       .   A
H140       C133 1.140       .   S
S134       C135 1.801       .   A
C136       C135 1.550       .   A
H142       C136 1.140       .   S
S115       C109 1.794       .   A
C114       C109 1.541       .   A
C110       C109 1.540       .   A
H121       C110 1.140       .   S
C110       C111 1.540       .   A
C111       C120 1.557       .   A
C111       C112 1.542       .   A
S118       C112 1.794       .   A
C113       C112 1.540       .   A
H122       C113 1.140       .   S
C114       C113 1.540       .   A
C114       C117 1.556       .   A
S115       C116 1.801       .   A
C117       C116 1.550       .   A
H124       C117 1.140       .   S
S118       C119 1.801       .   A
C120       C119 1.550       .   A
H126       C120 1.140       .   S
S99         C93 1.794       .   A
C98         C93 1.541       .   A
C94         C93 1.540       .   A
H105        C94 1.140       .   S
C94         C95 1.540       .   A
C95        C104 1.557       .   A
C95         C96 1.542       .   A
S102        C96 1.794       .   A
C97         C96 1.540       .   A
H106        C97 1.140       .   S
C98         C97 1.540       .   A
C98        C101 1.556       .   A
S99        C100 1.801       .   A
C101       C100 1.550       .   A
H108       C101 1.140       .   S
S102       C103 1.801       .   A
C104       C103 1.550       .   A
H110       C104 1.140       .   S
S83         C77 1.794       .   A
C82         C77 1.541       .   A
C78         C77 1.540       .   A
H89         C78 1.140       .   S
C78         C79 1.540       .   A
C79         C88 1.557       .   A
C79         C80 1.542       .   A
S86         C80 1.794       .   A
C81         C80 1.540       .   A
H90         C81 1.140       .   S
C82         C81 1.540       .   A
C82         C85 1.556       .   A
S83         C84 1.801       .   A
C85         C84 1.550       .   A
H92         C85 1.140       .   S
S86         C87 1.801       .   A
C88         C87 1.550       .   A
H94         C88 1.140       .   S
S67         C61 1.794       .   A
C66         C61 1.541       .   A
C62         C61 1.540       .   A
H73         C62 1.140       .   S
C62         C63 1.540       .   A
C63         C72 1.557       .   A
C63         C64 1.542       .   A
S70         C64 1.794       .   A
C65         C64 1.540       .   A
H74         C65 1.140       .   S
C66         C65 1.540       .   A
C66         C69 1.556       .   A
S67         C68 1.801       .   A
C69         C68 1.550       .   A
H76         C69 1.140       .   S
S70         C71 1.801       .   A
C72         C71 1.550       .   A
H78         C72 1.140       .   S
S51         C45 1.794       .   A
C50         C45 1.541       .   A
C46         C45 1.540       .   A
H57         C46 1.140       .   S
C46         C47 1.540       .   A
C47         C56 1.557       .   A
C47         C48 1.542       .   A
S54         C48 1.794       .   A
C49         C48 1.540       .   A
H58         C49 1.140       .   S
C50         C49 1.540       .   A
C50         C53 1.556       .   A
S51         C52 1.801       .   A
C53         C52 1.550       .   A
H60         C53 1.140       .   S
S54         C55 1.801       .   A
C56         C55 1.550       .   A
H62         C56 1.140       .   S
