data_acs_v1-6c_Al_1_1-1B_4CN_Ch
_audit_creation_date              2021-04-19
_audit_creation_method            'tobacco_3.0'
_symmetry_space_group_name_H-M    'P1'
_symmetry_Int_Tables_number       1
_symmetry_cell_setting            triclinic
loop_
_symmetry_equiv_pos_as_xyz
  x,y,z
_cell_length_a                    16.99643978306332
_cell_length_b                    16.996439643854394
_cell_length_c                    13.478285460508019
_cell_angle_alpha                 89.99999869788235
_cell_angle_beta                  89.99999910978266
_cell_angle_gamma                 120.00086966880022
loop_
_atom_site_label
_atom_site_type_symbol
_atom_site_fract_x
_atom_site_fract_y
_atom_site_fract_z
_atom_site_charge
O1         O    0.1945543353    0.6627660748    0.8430162833          0.6475
O2         O    0.4681087269    0.8054424427    0.8430162787          0.6475
O3         O    0.3372301400    0.5318982717    0.8430162837          0.6475
O4         O    0.1945515945    0.5318895691    0.8430162851          0.6475
O5         O    0.4681073469    0.6627734410    0.8430162807          0.6475
O6         O    0.3372342610    0.8054437792    0.8430162799          0.6475
C7         C    0.1653936983    0.5827482814    0.8759284827          0.6475
C8         C    0.4172517146    0.8346023768    0.8759284768          0.6475
C9         C    0.4172545815    0.5827493355    0.8759284803          0.6475
O10        O    0.1945543381    0.6627660779    0.6569837195          0.6475
O11        O    0.4681087297    0.8054424458    0.6569837149          0.6475
O12        O    0.3372301428    0.5318982748    0.6569837199          0.6475
O13        O    0.1945515972    0.5318895722    0.6569837213          0.6475
O14        O    0.4681073496    0.6627734441    0.6569837169          0.6475
O15        O    0.3372342637    0.8054437822    0.6569837161          0.6475
Al16      Al    0.2743853776    0.7256252212    0.7500074191             1.0
Al17      Al    0.4511482606    0.7256269627    0.7500074174             1.0
Al18      Al    0.2743781292    0.5488595834    0.7500074215             1.0
O19        O    0.3333061870    0.6667016578    0.7500074193          0.6475
C20        C    0.1653937020    0.5827482856    0.6240715228          0.6475
C21        C    0.4172517183    0.8346023809    0.6240715169          0.6475
C22        C    0.4172545852    0.5827493397    0.6240715204          0.6475
O23        O    0.8053800137    0.3372995692    0.3430162790          0.6475
O24        O    0.5318256221    0.1946232013    0.3430162835          0.6475
O25        O    0.6627042089    0.4681673723    0.3430162785          0.6475
O26        O    0.8053827545    0.4681760749    0.3430162771          0.6475
O27        O    0.5318270021    0.3372922030    0.3430162816          0.6475
O28        O    0.6627000880    0.1946218649    0.3430162823          0.6475
C29        C    0.8345406497    0.4173173615    0.3759284756          0.6475
C30        C    0.5826826334    0.1654632662    0.3759284815          0.6475
C31        C    0.5826797665    0.4173163074    0.3759284780          0.6475
O32        O    0.8053800164    0.3372995723    0.1569837151          0.6475
O33        O    0.5318256248    0.1946232044    0.1569837197          0.6475
O34        O    0.6627042117    0.4681673754    0.1569837147          0.6475
O35        O    0.8053827572    0.4681760780    0.1569837133          0.6475
O36        O    0.5318270049    0.3372922061    0.1569837177          0.6475
O37        O    0.6627000908    0.1946218680    0.1569837185          0.6475
Al38      Al    0.7255489741    0.2744404260    0.2500074180             1.0
Al39      Al    0.5487860911    0.2744386844    0.2500074197             1.0
Al40      Al    0.7255562225    0.4512060637    0.2500074156             1.0
O41        O    0.6666281647    0.3333639893    0.2500074178          0.6475
C42        C    0.8345406534    0.4173173657    0.1240715157          0.6475
C43        C    0.5826826371    0.1654632704    0.1240715216          0.6475
C44        C    0.5826797702    0.4173163116    0.1240715181          0.6475
C115       C    0.0791511622    0.5396258682    0.9406112318         -0.4029
C116       C    0.0044819824    0.5493042934    0.9142830556         -0.3741
C117       C    0.9255408471    0.5104663865    0.9743507326         -0.3242
C118       C    0.9207831895    0.4604397789    0.0593887666         -0.4029
C119       C    0.9950663014    0.4499056490    0.0851057870          -0.374
C120       C    0.0747508550    0.4903918523    0.0262003901         -0.3242
C121       C    0.0082287122    0.6005275909    0.8281003406          0.0223
C122       C    0.9920752049    0.4003388671    0.1724667614          0.0222
C123       C    0.1498029171    0.4786314616    0.0533461638          0.0064
C124       C    0.8498060777    0.5206947279    0.9461208577          0.0064
N125       N    0.2101079979    0.4680560891    0.0747896113         -0.7418
N126       N    0.7880788216    0.5281175449    0.9224357829         -0.7418
N127       N    0.9913567364    0.3618584997    0.2440490126         -0.7362
N128       N    0.0108548657    0.6432731410    0.7595673861         -0.7363
C101       C    0.9207831927    0.4604397794    0.4406112321         -0.4029
C102       C    0.9215845867    0.5008986392    0.5317425947         -0.3741
C103       C    0.0012080269    0.5414093771    0.5907253108         -0.3242
C104       C    0.0791511590    0.5396258677    0.5593887663         -0.4029
C105       C    0.0780220789    0.4982732833    0.4687812119          -0.374
C106       C    0.9990171870    0.4594766566    0.4087950677         -0.3242
C107       C    0.8428957452    0.5038460351    0.5647277429          0.0223
C108       C    0.1573384896    0.4970486203    0.4347748468          0.0222
C109       C    0.9989558084    0.4172201417    0.3166957476          0.0064
C110       C    0.0006885914    0.5820658094    0.6837496967          0.0064
N111       N    0.9986830443    0.3820080621    0.2426798817         -0.7418
N112       N    0.9997625433    0.6139902092    0.7596916543         -0.7418
N113       N    0.2216013792    0.4970435377    0.4053130672         -0.7362
N114       N    0.7802741165    0.5083172760    0.5915955230         -0.7363
C87        C    0.5395595830    0.0792174116    0.4406121872         -0.4029
C88        C    0.4631566943    0.9996054463    0.4064237152         -0.3741
C89        C    0.4229211625    0.9205834093    0.4663627777         -0.3242
C90        C    0.4603747687    0.9208482355    0.5593878112         -0.4029
C91        C    0.5373841464    0.0001581033    0.5930986216          -0.374
C92        C    0.5764530118    0.0797619019    0.5340648410         -0.3242
C93        C    0.4236529963    0.9981432640    0.3119575527          0.0223
C94        C    0.5757220492    0.0022138401    0.6884853745          0.0222
C95        C    0.6552838061    0.1600157121    0.5694826713          0.0064
C96        C    0.3451829195    0.8397976165    0.4301004650          0.0064
N97        N    0.7198431580    0.2246350421    0.5977867899         -0.7418
N98        N    0.2828569185    0.7740654114    0.4000464371         -0.7418
N99        N    0.6065234171    0.0054729844    0.7663931348         -0.7362
N100       N    0.3898127890    0.9963723514    0.2364322523         -0.7363
C73        C    0.4603747694    0.9208482384    0.9406121887         -0.4029
C74        C    0.4350133039    0.9871521307    0.9275834572         -0.3741
C75        C    0.4753860566    0.0669128575    0.9863478655         -0.3242
C76        C    0.5395595823    0.0792174087    0.0593878097         -0.4029
C77        C    0.5641708255    0.0124430205    0.0731674405          -0.374
C78        C    0.5252299148    0.9335817490    0.0129529156         -0.3242
C79        C    0.3700307517    0.9760652573    0.8530699980          0.0223
C80        C    0.6306018579    0.0244303925    0.1462256801          0.0222
C81        C    0.5508820941    0.8659395863    0.0283185162          0.0064
C82        C    0.4484001153    0.1337091708    0.9723287808          0.0064
N83        N    0.5709211387    0.8106824881    0.0417370761         -0.7418
N84        N    0.4256059757    0.1872374421    0.9616791237         -0.7418
N85        N    0.6855970816    0.0339585304    0.2038014509         -0.7362
N86        N    0.3187767205    0.9688998473    0.7917529754         -0.7363
C59        C    0.4603762764    0.5396255982    0.9406123924         -0.4029
C60        C    0.5073601298    0.5832489856    0.0276772252         -0.3725
C61        C    0.5478420163    0.5440673279    0.0865945092         -0.3242
C62        C    0.5395580753    0.4604400489    0.0593876061         -0.4029
C63        C    0.4917084391    0.4163208260    0.9729137896          -0.374
C64        C    0.4528877264    0.4564637421    0.9128636794         -0.3242
C65        C    0.5169815125    0.6688635218    0.0563803426          0.0223
C66        C    0.4837554671    0.3316655626    0.9430597360          0.0222
C67        C    0.4039580031    0.4102868602    0.8250413146          0.0064
C68        C    0.5952205676    0.5893497202    0.1754625935          0.0064
N69        N    0.3633638133    0.3721963592    0.7545706261         -0.7418
N70        N    0.6326294296    0.6256093770    0.2481069387         -0.7418
N71        N    0.4782085453    0.2639181430    0.9168737800         -0.7362
N72        N    0.5268561745    0.7390863060    0.0796365617         -0.7363
C45        C    0.4603762786    0.5396255998    0.5593876065         -0.4029
C46        C    0.5026273042    0.5804103411    0.4693107376         -0.3741
C47        C    0.5414277514    0.5402201931    0.4093233653         -0.3242
C48        C    0.5395580731    0.4604400473    0.4406123920         -0.4029
C49        C    0.4981997923    0.4202141964    0.5312173937          -0.374
C50        C    0.4576854032    0.4593412830    0.5901896257         -0.3242
C51        C    0.5047782880    0.6615442969    0.4358533581          0.0223
C52        C    0.4943182204    0.3380008691    0.5636625434          0.0222
C53        C    0.4160783566    0.4175563814    0.6826722393          0.0064
C54        C    0.5846250924    0.5829947875    0.3177943013          0.0064
N55        N    0.3834019577    0.3842147968    0.7581819140         -0.7418
N56        N    0.6205867066    0.6183864168    0.2442289057         -0.7418
N57        N    0.4890910932    0.2704452553    0.5900520251         -0.7362
N58        N    0.5055628814    0.7263150584    0.4068120996         -0.7363
loop_
_geom_bond_atom_site_label_1
_geom_bond_atom_site_label_2
_geom_bond_distance
_geom_bond_site_symmetry_2
_ccdc_geom_bond_type
O1         Al16 1.762       .   S
O1           C7 1.272       .   A
O2         Al17 1.762       .   S
O2           C8 1.272       .   A
O3         Al18 1.762       .   S
O3           C9 1.272       .   A
O4         Al18 1.762       .   S
O4           C7 1.272       .   A
O5         Al17 1.762       .   S
O5           C9 1.272       .   A
O6         Al16 1.762       .   S
O6           C8 1.272       .   A
C7         C115 1.540       .   S
C8          C73 1.540       .   S
C9          C59 1.540       .   S
O10        Al16 1.762       .   S
O10         C20 1.272       .   A
O11        Al17 1.762       .   S
O11         C21 1.272       .   A
O12        Al18 1.762       .   S
O12         C22 1.272       .   A
O13        Al18 1.762       .   S
O13         C20 1.272       .   A
O14        Al17 1.762       .   S
O14         C22 1.272       .   A
O15        Al16 1.762       .   S
O15         C21 1.272       .   A
Al16        O19 1.735       .   S
Al17        O19 1.735       .   S
Al18        O19 1.735       .   S
C20        C104 1.540       .   S
C21         C90 1.540       .   S
C22         C45 1.540       .   S
O23        Al38 1.762       .   S
O23         C29 1.272       .   A
O24        Al39 1.762       .   S
O24         C30 1.272       .   A
O25        Al40 1.762       .   S
O25         C31 1.272       .   A
O26        Al40 1.762       .   S
O26         C29 1.272       .   A
O27        Al39 1.762       .   S
O27         C31 1.272       .   A
O28        Al38 1.762       .   S
O28         C30 1.272       .   A
C29        C101 1.540   1_655   S
C30         C87 1.540   1_545   S
C31         C48 1.540       .   S
O32        Al38 1.762       .   S
O32         C42 1.272       .   A
O33        Al39 1.762       .   S
O33         C43 1.272       .   A
O34        Al40 1.762       .   S
O34         C44 1.272       .   A
O35        Al40 1.762       .   S
O35         C42 1.272       .   A
O36        Al39 1.762       .   S
O36         C44 1.272       .   A
O37        Al38 1.762       .   S
O37         C43 1.272       .   A
Al38        O41 1.735       .   S
Al39        O41 1.735       .   S
Al40        O41 1.735       .   S
C42        C118 1.540   1_654   S
C43         C76 1.540   1_544   S
C44         C62 1.540   1_554   S
C115       C116 1.404       .   A
C115       C120 1.405       .   A
C116       C117 1.416       .   A
C116       C121 1.434       .   S
C117       C118 1.405       .   A
C117       C124 1.434       .   S
C118       C119 1.404       .   A
C119       C120 1.416       .   A
C119       C122 1.434       .   S
C120       C123 1.434       .   S
C121       N128 1.162       .   T
C122       N127 1.162       .   T
C123       N125 1.162       .   T
C124       N126 1.162       .   T
C101       C102 1.404       .   A
C101       C106 1.405       .   A
C102       C103 1.416       .   A
C102       C107 1.434       .   S
C103       C104 1.405       .   A
C103       C110 1.434       .   S
C104       C105 1.404       .   A
C105       C106 1.416       .   A
C105       C108 1.434       .   S
C106       C109 1.434       .   S
C107       N114 1.162       .   T
C108       N113 1.162       .   T
C109       N111 1.162       .   T
C110       N112 1.162       .   T
C87         C88 1.404       .   A
C87         C92 1.405       .   A
C88         C89 1.416       .   A
C88         C93 1.434       .   S
C89         C90 1.405       .   A
C89         C96 1.434       .   S
C90         C91 1.404       .   A
C91         C92 1.416       .   A
C91         C94 1.434       .   S
C92         C95 1.434       .   S
C93        N100 1.162       .   T
C94         N99 1.162       .   T
C95         N97 1.162       .   T
C96         N98 1.162       .   T
C73         C74 1.404       .   A
C73         C78 1.405       .   A
C74         C75 1.416       .   A
C74         C79 1.434       .   S
C75         C76 1.405       .   A
C75         C82 1.434       .   S
C76         C77 1.404       .   A
C77         C78 1.416       .   A
C77         C80 1.434       .   S
C78         C81 1.434       .   S
C79         N86 1.162       .   T
C80         N85 1.162       .   T
C81         N83 1.162       .   T
C82         N84 1.162       .   T
C59         C60 1.404       .   A
C59         C64 1.405       .   A
C60         C61 1.416       .   A
C60         C65 1.434       .   S
C61         C62 1.405       .   A
C61         C68 1.434       .   S
C62         C63 1.404       .   A
C63         C64 1.416       .   A
C63         C66 1.434       .   S
C64         C67 1.434       .   S
C65         N72 1.162       .   T
C66         N71 1.162       .   T
C67         N69 1.162       .   T
C68         N70 1.162       .   T
C45         C46 1.404       .   A
C45         C50 1.405       .   A
C46         C47 1.416       .   A
C46         C51 1.434       .   S
C47         C48 1.405       .   A
C47         C54 1.434       .   S
C48         C49 1.404       .   A
C49         C50 1.416       .   A
C49         C52 1.434       .   S
C50         C53 1.434       .   S
C51         N58 1.162       .   T
C52         N57 1.162       .   T
C53         N55 1.162       .   T
C54         N56 1.162       .   T
