data_acs_v1-6c_Zn_1_Ch_1-3B_4H_Ch
_audit_creation_date              2021-04-19
_audit_creation_method            'tobacco_3.0'
_symmetry_space_group_name_H-M    'P1'
_symmetry_Int_Tables_number       1
_symmetry_cell_setting            triclinic
loop_
_symmetry_equiv_pos_as_xyz
  x,y,z
_cell_length_a                    28.621299856856876
_cell_length_b                    28.62053769229491
_cell_length_c                    26.750325284778192
_cell_angle_alpha                 90.00028637926751
_cell_angle_beta                  89.99969141696343
_cell_angle_gamma                 120.00035409776824
loop_
_atom_site_label
_atom_site_type_symbol
_atom_site_fract_x
_atom_site_fract_y
_atom_site_fract_z
_atom_site_charge
Zn1       Zn    0.3972709217    0.7306719899    0.7258012092          1.4972
Zn2       Zn    0.3332992414    0.6027276106    0.7258010295          1.4936
Zn3       Zn    0.3332998875    0.6667000898    0.8225963271          1.4911
Zn4       Zn    0.2693299494    0.6667003097    0.7258014341          1.4948
O5         O    0.3333000000    0.6667000000    0.7500000000         -1.8406
O6         O    0.4422928894    0.7137143469    0.6853243920         -0.7469
O7         O    0.3332985985    0.5577039619    0.7791064011         -0.7451
O8         O    0.3952794839    0.7286808636    0.8502440397         -0.7403
O9         O    0.3952783830    0.6196845854    0.6853242599         -0.7471
O10        O    0.4422935154    0.7756955315    0.7791067072         -0.7431
O11        O    0.3332990734    0.6047190554    0.8502438656         -0.7489
O12        O    0.2243077508    0.6667006146    0.7791070905         -0.7428
O13        O    0.2713198759    0.5577041749    0.6853244779         -0.7504
O14        O    0.2713209768    0.6667004531    0.8502442576         -0.7443
O15        O    0.2243071247    0.6047194300    0.6853247753          -0.749
O16        O    0.2862875353    0.7286812381    0.6853249493          -0.748
O17        O    0.3803147928    0.7756957445    0.6853247840         -0.7459
C18        C    0.4355084821    0.6666993617    0.6726723604           0.772
C19        C    0.3332986082    0.5644881043    0.8273269932          0.7769
C20        C    0.4355095145    0.7689115445    0.8273272802          0.7665
C21        C    0.2310915179    0.6667006383    0.8273276396          0.7702
C22        C    0.2310904855    0.5644884555    0.6726727198          0.7816
C23        C    0.3333013918    0.7689118957    0.6726730068          0.7721
Zn24      Zn    0.7306090854    0.3973442482    0.2742015385          1.4972
Zn25      Zn    0.6026681131    0.3333725679    0.2742017635          1.4936
Zn26      Zn    0.6666383512    0.3333721086    0.1774064508          1.4911
Zn27      Zn    0.6666374051    0.2693998689    0.2742013589          1.4948
O28        O    0.6666382387    0.3333721984    0.2500027779         -1.8406
O29        O    0.7136528311    0.4423681030    0.3146783491         -0.7469
O30        O    0.5576460797    0.3333727410    0.2208964026         -0.7451
O31        O    0.7286180333    0.3953528139    0.1497587090         -0.7403
O32        O    0.6196255736    0.3953535966    0.3146785144         -0.7471
O33        O    0.7756318444    0.4423676579    0.2208960193         -0.7431
O34        O    0.6046595261    0.3333724034    0.1497589269         -0.7489
O35        O    0.6666369274    0.2243760883    0.2208957132         -0.7428
O36        O    0.5576451631    0.2713917884    0.3146783404         -0.7504
O37        O    0.6666376227    0.2713910058    0.1497585349         -0.7443
O38        O    0.6046579142    0.2243765333    0.3146780430          -0.749
O39        O    0.7286164214    0.2863569439    0.3146778251          -0.748
O40        O    0.7756309277    0.3803867054    0.3146779571         -0.7459
C41        C    0.6666393909    0.4355842855    0.3273303934           0.772
C42        C    0.5644299962    0.3333726453    0.1726758089          0.7769
C43        C    0.7688479928    0.4355835515    0.1726754495          0.7665
C44        C    0.6666370866    0.2311601113    0.1726751624          0.7702
C45        C    0.5644284846    0.2311608453    0.3273301064          0.7816
C46        C    0.7688464812    0.3333717515    0.3273297470          0.7721
C197       C    0.8067700536    0.4545441984    0.1443434125         -0.0166
C198       C    0.8585319289    0.5073501613    0.1577665215         -0.0938
C199       C    0.9079792439    0.5296509661    0.1230072802         -0.1236
C200       C    0.9056633730    0.4990437010    0.0748705309          0.0908
C201       C    0.8542693278    0.4456508682    0.0619157173         -0.1114
C202       C    0.8047246909    0.4234778470    0.0965874614          -0.104
C203       C    0.9545972330    0.5222996802    0.0394536388          0.0168
C204       C    0.0053050975    0.5764498945    0.0519089625         -0.0943
C205       C    0.0536718474    0.6006368384    0.0158201519         -0.0944
C206       C    0.0512369369    0.5706516846    0.9672393476          0.0167
C207       C    0.0008975031    0.5160375024    0.9551821117         -0.0945
C208       C    0.9525397399    0.4918219252    0.9913289735         -0.0945
C209       C    0.0989216999    0.5957082168    0.9304412448          0.0907
C210       C    0.1492506162    0.6501603703    0.9428442657         -0.1234
C211       C    0.1964474648    0.6761277671    0.9055134523         -0.0941
C212       C    0.1931694570    0.6477399914    0.8556596766         -0.0164
C213       C    0.1431139558    0.5928845439    0.8435454580          -0.104
C214       C    0.0960376397    0.5667664712    0.8810382919         -0.1113
H216       H    0.8601474517    0.5301208378    0.1933024827          0.1135
H217       H    0.9461994544    0.5689716687    0.1327312450          0.0856
H218       H    0.8527451799    0.4227388287    0.0264842258          0.0849
H219       H    0.7664969134    0.3841441877    0.0868546586          0.1124
H220       H    0.0069088539    0.5987213541    0.0877867135          0.0815
H221       H    0.0911107524    0.6409192932    0.0248405271          0.0816
H222       H    0.9993135168    0.4937034287    0.9193506656          0.0823
H223       H    0.9151274622    0.4515106080    0.9823391347          0.0822
H224       H    0.1514982571    0.6713175185    0.9796009430          0.0856
H225       H    0.2336435739    0.7164799442    0.9146370252          0.1136
H227       H    0.1408601678    0.5716728489    0.8068291557          0.1124
H228       H    0.0589627730    0.5262428233    0.8721013460          0.0849
C167       C    0.1931687007    0.5455279977    0.6443413152         -0.0166
C168       C    0.1647416582    0.4851723647    0.6309470400         -0.0938
C169       C    0.1143729438    0.4604506780    0.5972469228         -0.1236
C170       C    0.0923859695    0.4961064702    0.5770402489          0.0908
C171       C    0.1201603273    0.5562568465    0.5912301586         -0.1114
C172       C    0.1706932689    0.5810276119    0.6247658942          -0.104
C173       C    0.0430003846    0.4716177043    0.5421427534          0.0168
C174       C    0.0163272719    0.4118188628    0.5269763822         -0.0943
C175       C    0.9679705511    0.3876133052    0.4908763436         -0.0944
C176       C    0.9463758143    0.4232914648    0.4699116679          0.0167
C177       C    0.9724492572    0.4828662861    0.4857418526         -0.0945
C178       C    0.0207903779    0.5070516198    0.5219075407         -0.0945
C179       C    0.8991396023    0.3994837495    0.4325984135          0.0907
C180       C    0.8730507692    0.3398255603    0.4171437784         -0.1234
C181       C    0.8267663110    0.3161962586    0.3787647882         -0.0941
C182       C    0.8067682660    0.3523322092    0.3556611515         -0.0164
C183       C    0.8323793969    0.4118511645    0.3716393452          -0.104
C184       C    0.8784737176    0.4353923820    0.4102603406         -0.1113
H186       H    0.1811741919    0.4588383465    0.6457412561          0.1135
H187       H    0.0935269591    0.4158353117    0.5870036975          0.0856
H188       H    0.1035659888    0.5825434260    0.5766213464          0.0849
H189       H    0.1915394291    0.6256570374    0.6350087762          0.1124
H190       H    0.0325647972    0.3855414219    0.5423500056          0.0815
H191       H    0.9484085063    0.3434185789    0.4793519279          0.0816
H192       H    0.9561636561    0.5091358145    0.4704470615          0.0823
H193       H    0.0403118838    0.5512274567    0.5334784791          0.0822
H194       H    0.8881093868    0.3131975536    0.4340111476          0.0856
H195       H    0.8075358794    0.2720803633    0.3672415018          0.1136
H197       H    0.8173055302    0.4384870656    0.3548369388          0.1124
H198       H    0.8975062995    0.4794171108    0.4220582852          0.0849
C137       C    0.3522617294    0.8068321415    0.6443430611         -0.0166
C138       C    0.3239725018    0.8399739818    0.6363675831         -0.0938
C139       C    0.3499874923    0.8902750570    0.6025881188         -0.1236
C140       C    0.4043695223    0.9074742964    0.5768772080          0.0908
C141       C    0.4332280826    0.8749658001    0.5856260605         -0.1114
C142       C    0.4070710394    0.8245054369    0.6192468278          -0.104
C143       C    0.4294554963    0.9568292293    0.5419429240          0.0168
C144       C    0.3996781168    0.9882666153    0.5322522950         -0.0943
C145       C    0.4238339688    0.0366270544    0.4961550203         -0.0944
C146       C    0.4777508878    0.0534575874    0.4697131753          0.0167
C147       C    0.5080113330    0.0226061139    0.4800517787         -0.0945
C148       C    0.4838594178    0.9742621417    0.5162156986         -0.0945
C149       C    0.5009873802    0.1007252172    0.4324345719          0.0907
C150       C    0.4707026505    0.1315978081    0.4224780990         -0.1234
C151       C    0.4930050267    0.1779538423    0.3841799620         -0.0941
C152       C    0.5454681470    0.1932405995    0.3556600521         -0.0164
C153       C    0.5761739638    0.1628307367    0.3661228510          -0.104
C154       C    0.5540119308    0.1166620669    0.4046597974         -0.1113
H156       H    0.2835925175    0.8270889412    0.6552401936          0.1135
H157       H    0.3288664220    0.9146173903    0.5963633164          0.0856
H158       H    0.4737512476    0.8880075590    0.5669330002          0.0849
H159       H    0.4282050831    0.8001614906    0.6254696343          0.1124
H160       H    0.3596133108    0.9755568211    0.5516815858          0.0815
H161       H    0.4016373785    0.0597202347    0.4886890683          0.0816
H162       H    0.5481268759    0.0353617082    0.4606987021          0.0823
H163       H    0.5060853166    0.9512089476    0.5237275361          0.0822
H164       H    0.4316908405    0.1200296042    0.4433581886          0.0856
H165       H    0.4705361579    0.2007256885    0.3767269668          0.1136
H167       H    0.6152156574    0.1744121815    0.3453054146          0.1124
H168       H    0.5766295980    0.0940850122    0.4123839266          0.0849
C107       C    0.6476764603    0.1932393984    0.1443444355         -0.0166
C108       C    0.6108926813    0.1906988484    0.1012050854         -0.0938
C109       C    0.5894705414    0.1439542615    0.0633383624         -0.1236
C110       C    0.6049553206    0.0998161622    0.0685823180          0.0908
C111       C    0.6426223104    0.1028993683    0.1111436167         -0.1114
C112       C    0.6638521758    0.1495431312    0.1491505565          -0.104
C113       C    0.5821550261    0.0522854427    0.0315514604          0.0168
C114       C    0.5433240585    0.0486391632    0.9899263451         -0.0943
C115       C    0.5191512997    0.0003190694    0.9537824696         -0.0944
C116       C    0.5337938546    0.9556237260    0.9593595702          0.0167
C117       C    0.5733543621    0.9597175233    0.0004450726         -0.0945
C118       C    0.5975795838    0.0081018403    0.0365628673         -0.0945
C119       C    0.5082686106    0.9065019532    0.9242114573          0.0907
C120       C    0.4689935261    0.9027977645    0.8830360974         -0.1234
C121       C    0.4421864549    0.8530241273    0.8486651414         -0.0941
C122       C    0.4544701407    0.8068322574    0.8556580071         -0.0164
C123       C    0.4943468264    0.8108723198    0.8964219614          -0.104
C124       C    0.5214021314    0.8608251593    0.9306104801         -0.1113
H126       H    0.5992490454    0.2232638586    0.0974638887          0.1135
H127       H    0.5618976945    0.1418242906    0.0315894174          0.0856
H128       H    0.6544766570    0.0704560497    0.1147444227          0.0825
H129       H    0.6914336210    0.1516672806    0.1809060484          0.1124
H130       H    0.5323211229    0.0816506392    0.9860273712          0.0815
H131       H    0.4901023349    0.9973900418    0.9231461207          0.0816
H132       H    0.5844448052    0.9267627603    0.0043024553          0.0823
H133       H    0.6266769271    0.0110642016    0.0671608450          0.0822
H134       H    0.4596487487    0.9368362869    0.8780957860          0.0856
H135       H    0.4130301322    0.8502222398    0.8182649158          0.1136
H137       H    0.5037612635    0.7768863777    0.9013492858          0.1124
H138       H    0.5508372185    0.8638354500    0.9608185016          0.0849
C77        C    0.5454676704    0.3523336643    0.1443429336         -0.0166
C78        C    0.4842119345    0.3304803105    0.1435661508         -0.0938
C79        C    0.4605375777    0.3569423092    0.1095985050         -0.1236
C80        C    0.4981781284    0.4053472593    0.0764897050          0.0908
C81        C    0.5595691087    0.4279199307    0.0779832189         -0.1114
C82        C    0.5832159934    0.4012830272    0.1118057964          -0.104
C83        C    0.4742192310    0.4306634372    0.0414648012          0.0168
C84        C    0.4127005237    0.4069651166    0.0391136461         -0.0943
C85        C    0.3884989166    0.4311261064    0.0030200395         -0.0944
C86        C    0.4258782038    0.4789518775    0.9692387008          0.0167
C87        C    0.4874660542    0.5032666369    0.9721934363         -0.0945
C88        C    0.5116666965    0.4791209415    0.0083534490         -0.0945
C89        C    0.4015323728    0.5019502122    0.9320492707          0.0907
C90        C    0.3399567267    0.4776696213    0.9294776367         -0.1234
C91        C    0.3153096010    0.4995414565    0.8913679915         -0.0941
C92        C    0.3522609341    0.5455270852    0.8556598684         -0.0164
C93        C    0.4139320171    0.5703297205    0.8586963033          -0.104
C94        C    0.4385911052    0.5486465611    0.8970325134         -0.1113
H96        H    0.4563347145    0.2944910552    0.1679261020          0.1135
H97        H    0.4151303515    0.3405287490    0.1087220431          0.0856
H98        H    0.5874804509    0.4640876279    0.0537885640          0.0849
H99        H    0.6286380440    0.4177078551    0.1126780276          0.1124
H100       H    0.3850777309    0.3713657077    0.0639844854          0.0815
H101       H    0.3429172260    0.4133763427    0.0010029185          0.0816
H102       H    0.5151117195    0.5389295712    0.9473928935          0.0823
H103       H    0.5572495055    0.4969096818    0.0104140094          0.0822
H104       H    0.3126143680    0.4433989915    0.9556920757          0.0856
H105       H    0.2697372589    0.4814980971    0.8893849651          0.1136
H107       H    0.4413030597    0.6046381801    0.8325398091          0.1124
H108       H    0.4841823394    0.5668918774    0.8992731925          0.0849
C47        C    0.6476785343    0.4545438433    0.3556605702         -0.0166
C48        C    0.6620623929    0.4603227387    0.4116108858         -0.0938
C49        C    0.6404502596    0.4875385020    0.4470827964         -0.1236
C50        C    0.6045393843    0.5090744447    0.4265412527          0.0908
C51        C    0.5910094521    0.5042774033    0.3703984257         -0.1114
C52        C    0.6124423751    0.4768313046    0.3349609029          -0.104
C53        C    0.5816768092    0.5347915422    0.4623658765          0.0168
C54        C    0.5941159313    0.5381111164    0.5186638546         -0.0943
C55        C    0.5699754063    0.5622948503    0.5548020589         -0.0944
C56        C    0.5333279710    0.5830779892    0.5345863651          0.0167
C57        C    0.5216248824    0.5806184712    0.4781712489         -0.0945
C58        C    0.5458377019    0.5564767938    0.4420200754         -0.0945
C59        C    0.5078477378    0.6056623533    0.5709483844          0.0907
C60        C    0.5199502933    0.6082975078    0.6272628768         -0.1234
C61        C    0.4933709491    0.6294639294    0.6639631711         -0.0941
C62        C    0.4544693387    0.6477398040    0.6443421836         -0.0164
C63        C    0.4429301779    0.6457976400    0.5879042269          -0.104
C64        C    0.4697810315    0.6249147078    0.5511666863         -0.1113
H66        H    0.6884616622    0.4441611813    0.4268416341          0.1135
H67        H    0.6507550498    0.4914773592    0.4885970877          0.0856
H68        H    0.5648089064    0.5206775318    0.3551224445          0.0849
H69        H    0.6021308432    0.4728958368    0.2934351114          0.1124
H70        H    0.6210455333    0.5224401916    0.5335849639          0.0815
H71        H    0.5788660782    0.5644446540    0.5965527832          0.0816
H72        H    0.4947743669    0.5963734564    0.4632208465          0.0823
H73        H    0.5370000817    0.5543849381    0.4002637930          0.0822
H74        H    0.5484676197    0.5944329182    0.6417939473          0.0856
H75        H    0.5022296613    0.6313050465    0.7056496706          0.1136
H77        H    0.4144716626    0.6597110647    0.5733371868          0.1124
H78        H    0.4612266051    0.6233798029    0.5094307059          0.0849
loop_
_geom_bond_atom_site_label_1
_geom_bond_atom_site_label_2
_geom_bond_distance
_geom_bond_site_symmetry_2
_ccdc_geom_bond_type
Zn1          O5 1.942       .   S
Zn1          O6 1.922       .   S
Zn1         O10 1.922       .   S
Zn1         O17 1.922       .   S
Zn2          O5 1.942       .   S
Zn2          O7 1.922       .   S
Zn2          O9 1.922       .   S
Zn2         O13 1.922       .   S
Zn3          O5 1.942       .   S
Zn3          O8 1.922       .   S
Zn3         O11 1.922       .   S
Zn3         O14 1.922       .   S
Zn4          O5 1.942       .   S
Zn4         O12 1.922       .   S
Zn4         O15 1.922       .   S
Zn4         O16 1.922       .   S
O6          C18 1.304       .   A
O7          C19 1.304       .   A
O8          C20 1.304       .   A
O9          C18 1.304       .   A
O10         C20 1.304       .   A
O11         C19 1.304       .   A
O12         C21 1.304       .   A
O13         C22 1.304       .   A
O14         C21 1.304       .   A
O15         C22 1.304       .   A
O16         C23 1.304       .   A
O17         C23 1.304       .   A
C18         C62 1.207       .   S
C19         C92 1.207       .   S
C20        C122 1.207       .   S
C21        C212 1.207       .   S
C22        C167 1.207       .   S
C23        C137 1.207       .   S
Zn24        O28 1.942       .   S
Zn24        O29 1.922       .   S
Zn24        O33 1.922       .   S
Zn24        O40 1.922       .   S
Zn25        O28 1.942       .   S
Zn25        O30 1.922       .   S
Zn25        O32 1.922       .   S
Zn25        O36 1.922       .   S
Zn26        O28 1.942       .   S
Zn26        O31 1.922       .   S
Zn26        O34 1.922       .   S
Zn26        O37 1.922       .   S
Zn27        O28 1.942       .   S
Zn27        O35 1.922       .   S
Zn27        O38 1.922       .   S
Zn27        O39 1.922       .   S
O29         C41 1.304       .   A
O30         C42 1.304       .   A
O31         C43 1.304       .   A
O32         C41 1.304       .   A
O33         C43 1.304       .   A
O34         C42 1.304       .   A
O35         C44 1.304       .   A
O36         C45 1.304       .   A
O37         C44 1.304       .   A
O38         C45 1.304       .   A
O39         C46 1.304       .   A
O40         C46 1.304       .   A
C41         C47 1.207       .   S
C42         C77 1.207   1_554   S
C43        C197 1.207   1_654   S
C44        C107 1.207   1_544   S
C45        C152 1.207   1_545   S
C46        C182 1.207   1_655   S
C198       C197 1.539       .   A
C197       C202 1.540       .   A
H216       C198 1.140       .   S
C199       C198 1.540       .   A
H217       C199 1.140       .   S
C199       C200 1.540       .   A
C203       C200 1.539       .   S
C201       C200 1.540       .   A
H218       C201 1.141       .   S
C202       C201 1.541       .   A
H219       C202 1.141       .   S
C208       C203 1.539       .   A
C204       C203 1.540       .   A
H220       C204 1.140       .   S
C204       C205 1.539       .   A
H221       C205 1.140       .   S
C206       C205 1.540       .   A
C209       C206 1.539       .   S
C207       C206 1.540       .   A
H222       C207 1.140       .   S
C208       C207 1.540       .   A
H223       C208 1.140       .   S
C214       C209 1.540       .   A
C209       C210 1.539       .   A
H224       C210 1.140       .   S
C211       C210 1.540       .   A
H225       C211 1.139       .   S
C212       C211 1.540       .   A
C213       C212 1.541       .   A
C214       C213 1.541       .   A
C213       H227 1.139       .   S
C214       H228 1.139       .   S
C168       C167 1.539       .   A
C167       C172 1.540       .   A
H186       C168 1.140       .   S
C169       C168 1.540       .   A
H187       C169 1.140       .   S
C169       C170 1.540       .   A
C173       C170 1.539       .   S
C171       C170 1.540       .   A
H188       C171 1.141       .   S
C172       C171 1.541       .   A
H189       C172 1.141       .   S
C178       C173 1.539       .   A
C174       C173 1.540       .   A
H190       C174 1.140       .   S
C174       C175 1.539       .   A
H191       C175 1.140       .   S
C176       C175 1.540       .   A
C179       C176 1.539       .   S
C177       C176 1.540       .   A
H192       C177 1.140       .   S
C178       C177 1.540       .   A
H193       C178 1.140       .   S
C184       C179 1.540       .   A
C179       C180 1.539       .   A
H194       C180 1.140       .   S
C181       C180 1.540       .   A
H195       C181 1.139       .   S
C182       C181 1.540       .   A
C183       C182 1.541       .   A
C184       C183 1.541       .   A
C183       H197 1.139       .   S
C184       H198 1.139       .   S
C138       C137 1.539       .   A
C137       C142 1.540       .   A
H156       C138 1.140       .   S
C139       C138 1.540       .   A
H157       C139 1.140       .   S
C139       C140 1.540       .   A
C143       C140 1.539       .   S
C141       C140 1.540       .   A
H158       C141 1.141       .   S
C142       C141 1.541       .   A
H159       C142 1.141       .   S
C148       C143 1.539       .   A
C144       C143 1.540       .   A
H160       C144 1.140       .   S
C144       C145 1.539       .   A
H161       C145 1.140       .   S
C146       C145 1.540       .   A
C149       C146 1.539       .   S
C147       C146 1.540       .   A
H162       C147 1.140       .   S
C148       C147 1.540       .   A
H163       C148 1.140       .   S
C154       C149 1.540       .   A
C149       C150 1.539       .   A
H164       C150 1.140       .   S
C151       C150 1.540       .   A
H165       C151 1.139       .   S
C152       C151 1.540       .   A
C153       C152 1.541       .   A
C154       C153 1.541       .   A
C153       H167 1.139       .   S
C154       H168 1.139       .   S
C108       C107 1.539       .   A
C107       C112 1.540       .   A
H126       C108 1.140       .   S
C109       C108 1.540       .   A
H127       C109 1.140       .   S
C109       C110 1.540       .   A
C113       C110 1.539       .   S
C111       C110 1.540       .   A
H128       C111 1.141       .   S
C112       C111 1.541       .   A
H129       C112 1.141       .   S
C118       C113 1.539       .   A
C114       C113 1.540       .   A
H130       C114 1.140       .   S
C114       C115 1.539       .   A
H131       C115 1.140       .   S
C116       C115 1.540       .   A
C119       C116 1.539       .   S
C117       C116 1.540       .   A
H132       C117 1.140       .   S
C118       C117 1.540       .   A
H133       C118 1.140       .   S
C124       C119 1.540       .   A
C119       C120 1.539       .   A
H134       C120 1.140       .   S
C121       C120 1.540       .   A
H135       C121 1.139       .   S
C122       C121 1.540       .   A
C123       C122 1.541       .   A
C124       C123 1.541       .   A
C123       H137 1.139       .   S
C124       H138 1.139       .   S
C78         C77 1.539       .   A
C77         C82 1.540       .   A
H96         C78 1.140       .   S
C79         C78 1.540       .   A
H97         C79 1.140       .   S
C79         C80 1.540       .   A
C83         C80 1.539       .   S
C81         C80 1.540       .   A
H98         C81 1.141       .   S
C82         C81 1.541       .   A
H99         C82 1.141       .   S
C88         C83 1.539       .   A
C84         C83 1.540       .   A
H100        C84 1.140       .   S
C84         C85 1.539       .   A
H101        C85 1.140       .   S
C86         C85 1.540       .   A
C89         C86 1.539       .   S
C87         C86 1.540       .   A
H102        C87 1.140       .   S
C88         C87 1.540       .   A
H103        C88 1.140       .   S
C94         C89 1.540       .   A
C89         C90 1.539       .   A
H104        C90 1.140       .   S
C91         C90 1.540       .   A
H105        C91 1.139       .   S
C92         C91 1.540       .   A
C93         C92 1.541       .   A
C94         C93 1.541       .   A
C93        H107 1.139       .   S
C94        H108 1.139       .   S
C48         C47 1.539       .   A
C47         C52 1.540       .   A
H66         C48 1.140       .   S
C49         C48 1.540       .   A
H67         C49 1.140       .   S
C49         C50 1.540       .   A
C53         C50 1.539       .   S
C51         C50 1.540       .   A
H68         C51 1.141       .   S
C52         C51 1.541       .   A
H69         C52 1.141       .   S
C58         C53 1.539       .   A
C54         C53 1.540       .   A
H70         C54 1.140       .   S
C54         C55 1.539       .   A
H71         C55 1.140       .   S
C56         C55 1.540       .   A
C59         C56 1.539       .   S
C57         C56 1.540       .   A
H72         C57 1.140       .   S
C58         C57 1.540       .   A
H73         C58 1.140       .   S
C64         C59 1.540       .   A
C59         C60 1.539       .   A
H74         C60 1.140       .   S
C61         C60 1.540       .   A
H75         C61 1.139       .   S
C62         C61 1.540       .   A
C63         C62 1.541       .   A
C64         C63 1.541       .   A
C63         H77 1.139       .   S
C64         H78 1.139       .   S
