data_acs_v1-6c_Al_1_Ch_1-1B_2NH2_Ch
_audit_creation_date              2021-04-19
_audit_creation_method            'tobacco_3.0'
_symmetry_space_group_name_H-M    'P1'
_symmetry_Int_Tables_number       1
_symmetry_cell_setting            triclinic
loop_
_symmetry_equiv_pos_as_xyz
  x,y,z
_cell_length_a                    17.030510261934506
_cell_length_b                    16.97935740276585
_cell_length_c                    13.962033173354946
_cell_angle_alpha                 89.53650427486012
_cell_angle_beta                  90.28753215528111
_cell_angle_gamma                 119.55789954594584
loop_
_atom_site_label
_atom_site_type_symbol
_atom_site_fract_x
_atom_site_fract_y
_atom_site_fract_z
_atom_site_charge
O1         O    0.3336420197    0.8041875088    0.8529402913         -0.8267
C2         C    0.4132407775    0.5840655916    0.6197423413          0.9668
O3         O    0.4691206475    0.6486701436    0.6643590020         -0.7179
O4         O    0.4704166010    0.8001933290    0.6472406651         -0.7538
Al5       Al    0.4577188989    0.7271000946    0.7550282315          1.4898
C6         C    0.4228445258    0.8346587885    0.6225294838          0.9194
O7         O    0.2010735621    0.6663939067    0.6398248481          -0.816
O8         O    0.1957925739    0.5322678745    0.8619326896         -0.7516
Al9       Al    0.2730817656    0.7285739345    0.7459971701          1.9012
O10        O    0.1795556568    0.5268168237    0.6689336440         -0.7423
O11        O    0.3501478771    0.5263760238    0.8475637714         -0.7408
O12        O    0.3320539393    0.5290262995    0.6516419399         -0.7974
O13        O    0.4699811097    0.6652208645    0.8576722522         -0.7794
O14        O    0.3329678713    0.6651246003    0.7532131921         -1.1407
O15        O    0.4704514809    0.8205198139    0.8413696783         -0.7327
C16        C    0.4155121715    0.8387483115    0.8774375329          0.9745
C17        C    0.1641270855    0.5814086033    0.6239037064          0.9384
Al18      Al    0.2722271132    0.5413451589    0.7573205951          1.5556
O19        O    0.3501330715    0.8194761079    0.6572577211         -0.7789
C20        C    0.4251199872    0.5810840058    0.8799782531          0.9801
C21        C    0.1589554524    0.5802346994    0.8764086824          0.9289
O22        O    0.1797967683    0.6535186294    0.8295674149         -0.8321
O23        O    0.8045824232    0.3341729267    0.1468101928         -0.8267
C24        C    0.5849238340    0.4139529979    0.3802721037          0.9668
O25        O    0.6494933347    0.4700388443    0.3354310722         -0.7179
O26        O    0.8003697122    0.4709918097    0.3522644880         -0.7538
Al27      Al    0.7278112938    0.4586596404    0.2446362934          1.4898
C28        C    0.8345396316    0.4230971945    0.3769997635          0.9194
O29        O    0.6665435876    0.2008166596    0.3604295763          -0.816
O30        O    0.5334957461    0.1963396449    0.1385806374         -0.7516
Al31      Al    0.7288837435    0.2732543664    0.2540071938          1.9012
O32        O    0.5275543852    0.1795662823    0.3316208816         -0.7423
O33        O    0.5279036807    0.3512917459    0.1526742465         -0.7408
O34        O    0.5300201860    0.3326302618    0.3486256262         -0.7974
O35        O    0.6664596196    0.4713523184    0.1420844476         -0.7794
O36        O    0.6658274702    0.3335272597    0.2467983708         -1.1407
O37        O    0.8210969956    0.4714708079    0.1580965861         -0.7327
C38        C    0.8392310557    0.4163638891    0.1220964901          0.9745
C39        C    0.5817844922    0.1638531236    0.3765778388          0.9384
Al40      Al    0.5424312902    0.2728019753    0.2430344909          1.5556
O41        O    0.8193571031    0.3502106544    0.3424345758         -0.7789
C42        C    0.5826245210    0.4265360885    0.1200184885          0.9801
C43        C    0.5812319687    0.1592938365    0.1240834577          0.9289
O44        O    0.6541481408    0.1799542383    0.1707496025         -0.8321
C115       C    0.0081759430    0.4846994214    0.0955014301         -0.2719
C116       C    0.9223196831    0.4589499440    0.0582481791         -0.1526
C117       C    0.9117534168    0.4726869042    0.9592156637          0.3537
C118       C    0.9899964195    0.5119244947    0.9030254626         -0.2664
C119       C    0.0758668250    0.5376486445    0.9402569934         -0.1588
C120       C    0.0864468359    0.5239286391    0.0393052509          0.3645
N121       N    0.1684357106    0.5436070045    0.0794458725         -0.9013
H122       H    0.0138472880    0.4725554190    0.1709578986          0.1757
H123       H    0.9843236542    0.5241026029    0.8275759082          0.1756
N124       N    0.8296860775    0.4531413633    0.9190259984         -0.8916
H125       H    0.1741479244    0.5512057507    0.1513057954          0.3494
H126       H    0.2244337069    0.5842776193    0.0408325641          0.4003
H127       H    0.7737922542    0.4120186093    0.9575925872          0.3965
H128       H    0.8239756901    0.4447679479    0.8472465804          0.3454
C101       C    0.9854821020    0.5574839923    0.4374669461         -0.2719
C102       C    0.9218071123    0.4650145601    0.4423744761         -0.1526
C103       C    0.9351333505    0.4070403738    0.5067471758          0.3537
C104       C    0.0131845153    0.4470047639    0.5633939110         -0.2664
C105       C    0.0768596048    0.5394912377    0.5585289938         -0.1588
C106       C    0.0635483886    0.5974784892    0.4941385200          0.3645
N107       N    0.1213615819    0.6898771484    0.4892854750         -0.9013
H108       H    0.9729573899    0.5999536906    0.3884127024          0.1757
H109       H    0.0257237570    0.4045211057    0.6124175971          0.1756
N110       N    0.8773392926    0.3144806578    0.5115053814         -0.8916
H111       H    0.1188625966    0.7220206236    0.4290772692          0.3494
H112       H    0.1830606981    0.7134759515    0.5195756420          0.4003
H113       H    0.8154974440    0.2911736202    0.4816273209          0.3965
H114       H    0.8794555005    0.2827208856    0.5722016344          0.3454
C87        C    0.5949177124    0.0549782856    0.4972458241         -0.2719
C88        C    0.5399482557    0.0772024695    0.4413173213         -0.1526
C89        C    0.4443446286    0.0203829149    0.4426510409          0.3537
C90        C    0.4097219036    0.9435319484    0.5018161946         -0.2664
C91        C    0.4646807623    0.9213094425    0.5577900013         -0.1588
C92        C    0.5602996233    0.9781219388    0.5564501777          0.3645
N93        N    0.6178631462    0.9624913246    0.6134506605         -0.9013
H94        H    0.6673568737    0.1000543983    0.4953485370          0.1757
H95        H    0.3372821164    0.8984371689    0.5036769470          0.1756
N96        N    0.3866876393    0.0359225216    0.3854510393         -0.8916
H97        H    0.6833123222    0.9926283671    0.5933029770          0.3494
H98        H    0.5921504319    0.8999652143    0.6431122048          0.4003
H99        H    0.4124753127    0.0986950202    0.3563522992          0.3965
H100       H    0.3214588183    0.0063396625    0.4063343046          0.3454
C73        C    0.4141306765    0.9276147471    0.0234978546         -0.2719
C74        C    0.4587256854    0.9223345742    0.9417535487         -0.1526
C75        C    0.5455300325    0.9954386943    0.9171117685          0.3537
C76        C    0.5825881344    0.0704252617    0.9779859196         -0.2664
C77        C    0.5380184548    0.0757075739    0.0597674419         -0.1588
C78        C    0.4511948818    0.0026053080    0.0844119813          0.3645
N79        N    0.4057077408    0.0016555846    0.1665020511         -0.9013
H80        H    0.3485342254    0.8704997724    0.0407994041          0.1757
H81        H    0.6481698152    0.1275555380    0.9606550573          0.1756
N82        N    0.5910321886    0.9964864000    0.8348199421         -0.8916
H83        H    0.3384017607    0.9586781184    0.1677945975          0.3494
H84        H    0.4276125303    0.0617046129    0.1998658652          0.4003
H85        H    0.5692781534    0.9362192590    0.8019468317          0.3965
H86        H    0.6584599912    0.0389506453    0.8341590952          0.3454
C59        C    0.4489978269    0.4269014300    0.0528895365         -0.2719
C60        C    0.5429804279    0.4654359975    0.0596000533         -0.1526
C61        C    0.6005673926    0.5446107200    0.0053821958          0.3537
C62        C    0.5587565508    0.5806880879    0.9470905955         -0.2664
C63        C    0.4647640804    0.5421840968    0.9403966883         -0.1588
C64        C    0.4071606643    0.4629891816    0.9946048429          0.3645
N65        N    0.3142440146    0.4243661355    0.9948795658         -0.9013
H66        H    0.4070424593    0.3671670766    0.0957529957          0.1757
H67        H    0.6007180676    0.6404016001    0.9041963853          0.1756
N68        N    0.6936126351    0.5832142265    0.0049538868         -0.8916
H69        H    0.2784002933    0.3591941798    0.0168844805          0.3494
H70        H    0.2865052572    0.4433462910    0.9414445953          0.4003
H71        H    0.7211670273    0.5644763008    0.0588182167          0.3965
H72        H    0.7292402559    0.6486522100    0.9837428927          0.3454
C45        C    0.5541755551    0.5469356426    0.4240064276         -0.2719
C46        C    0.5389269909    0.4595290870    0.4444302983         -0.1526
C47        C    0.4824843980    0.4092376322    0.5226777101          0.3537
C48        C    0.4440287701    0.4510873281    0.5760199148         -0.2664
C49        C    0.4592376206    0.5384895024    0.5555841467         -0.1588
C50        C    0.5156993314    0.5888020483    0.4773386519          0.3645
N51        N    0.5298027932    0.6733387257    0.4505165990         -0.9013
H52        H    0.5967661271    0.5831037510    0.3634292471          0.1757
H53        H    0.4014694281    0.4149283198    0.6366234473          0.1758
N54        N    0.4684745412    0.3246464638    0.5496677354         -0.8916
H55        H    0.5847432718    0.7119682297    0.4098758127          0.3494
H56        H    0.5129417763    0.7066139796    0.4989108359          0.4003
H57        H    0.4849229840    0.2913357830    0.5008759048          0.3965
H58        H    0.4130050193    0.2858953719    0.5895643882          0.3454
loop_
_geom_bond_atom_site_label_1
_geom_bond_atom_site_label_2
_geom_bond_distance
_geom_bond_site_symmetry_2
_ccdc_geom_bond_type
O1          C16 1.264       .   A
O1          Al9 1.910       .   S
C2          O12 1.307       .   A
C2           O3 1.213       .   A
C2          C49 1.622       .   S
O3          Al5 1.923       .   S
O4          Al5 1.887       .   S
O4           C6 1.257       .   A
Al5         O13 1.841       .   S
Al5         O14 1.849       .   S
Al5         O15 1.925       .   S
C6          O19 1.234       .   A
C6          C91 1.562       .   S
O7          Al9 1.883       .   S
O7          C17 1.279       .   A
O8         Al18 1.915       .   S
O8          C21 1.267       .   A
Al9         O14 1.814       .   S
Al9         O22 1.873       .   S
Al9         O19 1.904       .   S
O10        Al18 1.918       .   S
O10         C17 1.246       .   A
O11         C20 1.236       .   A
O11        Al18 1.930       .   S
O12        Al18 1.868       .   S
O13         C20 1.281       .   A
O14        Al18 1.829       .   S
O15         C16 1.232       .   A
C16         C74 1.532       .   S
C17        C105 1.582       .   S
C20         C63 1.424       .   S
C21         O22 1.287       .   A
C21        C119 1.521       .   S
O23         C38 1.264       .   A
O23        Al31 1.910       .   S
C24         O34 1.307       .   A
C24         O25 1.213       .   A
C24         C46 1.622       .   S
O25        Al27 1.923       .   S
O26        Al27 1.887       .   S
O26         C28 1.257       .   A
Al27        O35 1.841       .   S
Al27        O36 1.849       .   S
Al27        O37 1.925       .   S
C28         O41 1.234       .   A
C28        C102 1.582   1_655   S
O29        Al31 1.883       .   S
O29         C39 1.279       .   A
O30        Al40 1.915       .   S
O30         C43 1.267       .   A
Al31        O36 1.814       .   S
Al31        O44 1.873       .   S
Al31        O41 1.904       .   S
O32        Al40 1.918       .   S
O32         C39 1.246       .   A
O33         C42 1.236       .   A
O33        Al40 1.930       .   S
O34        Al40 1.868       .   S
O35         C42 1.281       .   A
O36        Al40 1.829       .   S
O37         C38 1.232       .   A
C38        C116 1.521   1_654   S
C39         C88 1.562   1_545   S
C42         C60 1.424   1_554   S
C43         O44 1.287       .   A
C43         C77 1.532   1_544   S
C115       C116 1.402       .   A
C115       C120 1.401       .   A
C115       H122 1.085       .   S
C116       C117 1.426       .   A
C117       C118 1.400       .   A
C117       N124 1.384       .   S
C118       C119 1.402       .   A
C118       H123 1.085       .   S
C119       C120 1.426       .   A
C120       N121 1.382       .   S
N121       H125 1.011       .   S
N121       H126 1.013       .   S
N124       H127 1.013       .   S
N124       H128 1.011       .   S
C101       C102 1.402       .   A
C101       C106 1.401       .   A
C101       H108 1.085       .   S
C102       C103 1.426       .   A
C103       C104 1.400       .   A
C103       N110 1.384       .   S
C104       C105 1.402       .   A
C104       H109 1.085       .   S
C105       C106 1.426       .   A
C106       N107 1.382       .   S
N107       H111 1.011       .   S
N107       H112 1.013       .   S
N110       H113 1.013       .   S
N110       H114 1.011       .   S
C87         C88 1.402       .   A
C87         C92 1.401       .   A
C87         H94 1.085       .   S
C88         C89 1.426       .   A
C89         C90 1.400       .   A
C89         N96 1.384       .   S
C90         C91 1.402       .   A
C90         H95 1.085       .   S
C91         C92 1.426       .   A
C92         N93 1.382       .   S
N93         H97 1.011       .   S
N93         H98 1.013       .   S
N96         H99 1.013       .   S
N96        H100 1.011       .   S
C73         C74 1.402       .   A
C73         C78 1.401       .   A
C73         H80 1.085       .   S
C74         C75 1.426       .   A
C75         C76 1.400       .   A
C75         N82 1.384       .   S
C76         C77 1.402       .   A
C76         H81 1.085       .   S
C77         C78 1.426       .   A
C78         N79 1.382       .   S
N79         H83 1.011       .   S
N79         H84 1.013       .   S
N82         H85 1.013       .   S
N82         H86 1.011       .   S
C59         C60 1.402       .   A
C59         C64 1.401       .   A
C59         H66 1.085       .   S
C60         C61 1.426       .   A
C61         C62 1.400       .   A
C61         N68 1.384       .   S
C62         C63 1.402       .   A
C62         H67 1.085       .   S
C63         C64 1.426       .   A
C64         N65 1.382       .   S
N65         H69 1.011       .   S
N65         H70 1.013       .   S
N68         H71 1.013       .   S
N68         H72 1.011       .   S
C45         C46 1.402       .   A
C45         C50 1.401       .   A
C45         H52 1.085       .   S
C46         C47 1.426       .   A
C47         C48 1.400       .   A
C47         N54 1.384       .   S
C48         C49 1.402       .   A
C48         H53 1.085       .   S
C49         C50 1.426       .   A
C50         N51 1.382       .   S
N51         H55 1.011       .   S
N51         H56 1.013       .   S
N54         H57 1.013       .   S
N54         H58 1.011       .   S
