data_acs_v1-6c_Al_1_1-1B_2SH_Ch
_audit_creation_date              2021-04-19
_audit_creation_method            'tobacco_3.0'
_symmetry_space_group_name_H-M    'P1'
_symmetry_Int_Tables_number       1
_symmetry_cell_setting            triclinic
loop_
_symmetry_equiv_pos_as_xyz
  x,y,z
_cell_length_a                    17.005050029524245
_cell_length_b                    17.005050409667216
_cell_length_c                    13.485113596175063
_cell_angle_alpha                 90.0000146804789
_cell_angle_beta                  89.99998573946061
_cell_angle_gamma                 120.0008681343699
loop_
_atom_site_label
_atom_site_type_symbol
_atom_site_fract_x
_atom_site_fract_y
_atom_site_fract_z
_atom_site_charge
O1         O    0.3372319350    0.8053754003    0.6570308377          0.5934
O2         O    0.1946278166    0.5319595292    0.6570308165          0.5934
O3         O    0.4680334763    0.6627718406    0.6570307954          0.5934
O4         O    0.4680421716    0.8053781384    0.6570308178          0.5934
O5         O    0.3372245781    0.5319609071    0.6570307948          0.5934
O6         O    0.1946264782    0.6627677247    0.6570308370          0.5934
C7         C    0.4172092126    0.8345212677    0.6241352970          0.5934
C8         C    0.1654826482    0.5827907867    0.6241352959          0.5934
C9         C    0.4172081641    0.5827879185    0.6241352575          0.5934
O10        O    0.3372319228    0.8053754137    0.8429692046          0.5934
O11        O    0.1946278043    0.5319595426    0.8429691835          0.5934
O12        O    0.4680334641    0.6627718539    0.8429691623          0.5934
O13        O    0.4680421594    0.8053781517    0.8429691847          0.5934
O14        O    0.3372245658    0.5319609204    0.8429691617          0.5934
O15        O    0.1946264659    0.6627677380    0.8429692040          0.5934
Al16      Al    0.2744046143    0.7255847906    0.7499926026             1.0
Al17      Al    0.2744028772    0.5489114145    0.7499925749             1.0
Al18      Al    0.4510807472    0.7255920334    0.7499925757             1.0
O19        O    0.3332983431    0.6666938161    0.7499925844          0.5934
C20        C    0.4172091960    0.8345212857    0.8758647301          0.5934
C21        C    0.1654826316    0.5827908047    0.8758647289          0.5934
C22        C    0.4172081475    0.5827879366    0.8758646906          0.5934
O23        O    0.6627024362    0.1946902378    0.1570307984          0.5934
O24        O    0.8053065546    0.4681061089    0.1570308195          0.5934
O25        O    0.5319008949    0.3372937976    0.1570308406          0.5934
O26        O    0.5318921996    0.1946874998    0.1570308183          0.5934
O27        O    0.6627097931    0.4681047311    0.1570308412          0.5934
O28        O    0.8053078930    0.3372979135    0.1570307990          0.5934
C29        C    0.5827251630    0.1655443658    0.1241352729          0.5934
C30        C    0.8344517273    0.4172748468    0.1241352740          0.5934
C31        C    0.5827262114    0.4172777149    0.1241353124          0.5934
O32        O    0.6627024240    0.1946902512    0.3429691653          0.5934
O33        O    0.8053065424    0.4681061223    0.3429691864          0.5934
O34        O    0.5319008827    0.3372938109    0.3429692076          0.5934
O35        O    0.5318921873    0.1946875131    0.3429691852          0.5934
O36        O    0.6627097809    0.4681047444    0.3429692082          0.5934
O37        O    0.8053078808    0.3372979268    0.3429691659          0.5934
Al38      Al    0.7255297447    0.2744808609    0.2499925692             1.0
Al39      Al    0.7255314817    0.4511542370    0.2499925969             1.0
Al40      Al    0.5488536118    0.2744736181    0.2499925961             1.0
O41        O    0.6666360159    0.3333718354    0.2499925874          0.5934
C42        C    0.5827251464    0.1655443838    0.3758647060          0.5934
C43        C    0.8344517108    0.4172748648    0.3758647071          0.5934
C44        C    0.5827261949    0.4172777330    0.3758647454          0.5934
C105       C    0.0792804570    0.5396895857    0.9405156742         -0.4649
C106       C    0.0779877145    0.5718845162    0.0358636442         -0.5762
C107       C    0.0014383170    0.5350759918    0.0972345489         -0.2929
C108       C    0.9206539019    0.4603760658    0.0594843288         -0.4642
C109       C    0.9220799126    0.4278713291    0.9643524322         -0.5765
C110       C    0.9985813747    0.4647773581    0.9028952150         -0.2926
S111       S    0.0224508234    0.5903632813    0.2144371695         -0.7262
S112       S    0.9785729185    0.4071493796    0.7872819858         -0.7262
H113       H    0.0603831131    0.4600963735    0.7459825894         -0.1125
H114       H    0.9379135460    0.5438315321    0.2514037967         -0.1126
H115       H    0.1410377666    0.6289833478    0.0622288009         -0.2067
H116       H    0.8591671254    0.3704604401    0.9381835460         -0.2066
C93        C    0.0792804448    0.5396895670    0.5594843241         -0.4649
C94        C    0.9921236517    0.5018421430    0.6006741655         -0.5762
C95        C    0.9119491008    0.4620764606    0.5450678679         -0.2929
C96        C    0.9206539142    0.4603760845    0.4405156789         -0.4642
C97        C    0.0077823487    0.4977818577    0.3993667763         -0.5765
C98        C    0.0879777488    0.5377011547    0.4549500078         -0.2926
S99        S    0.8123796354    0.4190007521    0.6196101945         -0.7262
S100       S    0.1873668403    0.5774699974    0.3807017138         -0.7262
H101       H    0.2496187749    0.6144626150    0.4531019049         -0.1125
H102       H    0.7506156616    0.3910460044    0.5464303390         -0.1126
H103       H    0.9881803864    0.5042921400    0.6808392645         -0.2067
H104       H    0.0117161280    0.4949000934    0.3192387642         -0.2066
C81        C    0.4603097996    0.9207201629    0.5594852782         -0.4649
C82        C    0.4956045449    0.9225619129    0.4650110492         -0.5762
C83        C    0.5352616055    0.9990849663    0.4035983100         -0.2929
C84        C    0.5396245593    0.0793454886    0.4405147247         -0.4642
C85        C    0.5047747055    0.0776404402    0.5352021821         -0.5765
C86        C    0.4649633623    0.0010741971    0.5965563277         -0.2926
S87        S    0.5747769010    0.9796654301    0.2889298027         -0.7262
S88        S    0.4287802247    0.0215196711    0.7128635002         -0.7262
H89        H    0.3911217467    0.9370362585    0.7499121331         -0.1125
H90        H    0.6033277092    0.0613273487    0.2473906760         -0.1126
H91        H    0.4911632839    0.8599713325    0.4393770746         -0.2067
H92        H    0.5096513903    0.1403627466    0.5610676313         -0.2066
C69        C    0.4603097807    0.9207201495    0.9405147197         -0.4649
C70        C    0.5007530188    0.9242814785    0.0322545872         -0.5762
C71        C    0.5407889355    0.0009310750    0.0934661313         -0.2929
C72        C    0.5396245783    0.0793455020    0.0594852832         -0.4642
C73        C    0.4987484391    0.0756276968    0.9679983793         -0.5765
C74        C    0.4588533749    0.9990334840    0.9066886837         -0.2926
S75        S    0.5848224975    0.9830206282    0.2057349757         -0.7262
S76        S    0.4115490641    0.0157645347    0.7962879497         -0.7262
H77        H    0.3842996708    0.9347576935    0.7537110758         -0.1125
H78        H    0.6210137917    0.0672344312    0.2432162936         -0.1126
H79        H    0.5002276623    0.8629987914    0.0558088146         -0.2067
H80        H    0.4988334510    0.1367496082    0.9446777940         -0.2066
C57        C    0.5396242914    0.4603775928    0.0594841182         -0.4649
C58        C    0.4745284508    0.4801194780    0.0969887858         -0.5762
C59        C    0.4335887029    0.5192754796    0.0412588947         -0.2929
C60        C    0.4603100676    0.5396880587    0.9405158848         -0.4642
C61        C    0.5250409458    0.5194952973    0.9028704621         -0.5765
C62        C    0.5661129819    0.4804896531    0.9586391673         -0.2926
S63        S    0.3526382450    0.5343021479    0.1100919248         -0.7262
S64        S    0.6443431177    0.4620645403    0.8887351529         -0.7262
H65        H    0.6737975080    0.4298835677    0.9621144747         -0.1125
H66        H    0.3306113612    0.5757686539    0.0396630799         -0.1126
H67        H    0.4557334161    0.4634465410    0.1742585517         -0.2067
H68        H    0.5434852018    0.5357134323    0.8254573018         -0.2066
C45        C    0.5396243055    0.4603775794    0.4405158780         -0.4649
C46        C    0.4787218653    0.4124320180    0.5173152907         -0.5762
C47        C    0.4379638112    0.4486550171    0.5779981839         -0.2929
C48        C    0.4603100535    0.5396880721    0.5594841250         -0.4642
C49        C    0.5208297970    0.5874690146    0.4823420634         -0.5765
C50        C    0.5617254217    0.5513111072    0.4217643445         -0.2926
S51        S    0.3628239875    0.3698898461    0.6675518253         -0.7262
S52        S    0.6340100455    0.6288549554    0.3296051728         -0.7268
H53        H    0.6646863478    0.5769508083    0.2895324291         -0.1125
H54        H    0.3399449591    0.4251109510    0.7147532513         -0.1126
H55        H    0.4631957208    0.3429947172    0.5291489076         -0.2067
H56        H    0.5359867861    0.6567481382    0.4701509293         -0.2066
loop_
_geom_bond_atom_site_label_1
_geom_bond_atom_site_label_2
_geom_bond_distance
_geom_bond_site_symmetry_2
_ccdc_geom_bond_type
O1         Al16 1.762       .   S
O1           C7 1.272       .   A
O2         Al17 1.762       .   S
O2           C8 1.272       .   A
O3         Al18 1.762       .   S
O3           C9 1.272       .   A
O4         Al18 1.762       .   S
O4           C7 1.272       .   A
O5         Al17 1.762       .   S
O5           C9 1.272       .   A
O6         Al16 1.762       .   S
O6           C8 1.272       .   A
C7          C81 1.540       .   S
C8          C93 1.540       .   S
C9          C48 1.540       .   S
O10        Al16 1.762       .   S
O10         C20 1.272       .   A
O11        Al17 1.762       .   S
O11         C21 1.272       .   A
O12        Al18 1.762       .   S
O12         C22 1.272       .   A
O13        Al18 1.762       .   S
O13         C20 1.272       .   A
O14        Al17 1.762       .   S
O14         C22 1.272       .   A
O15        Al16 1.762       .   S
O15         C21 1.272       .   A
Al16        O19 1.735       .   S
Al17        O19 1.735       .   S
Al18        O19 1.735       .   S
C20         C69 1.540       .   S
C21        C105 1.540       .   S
C22         C60 1.540       .   S
O23        Al38 1.762       .   S
O23         C29 1.272       .   A
O24        Al39 1.762       .   S
O24         C30 1.272       .   A
O25        Al40 1.762       .   S
O25         C31 1.272       .   A
O26        Al40 1.762       .   S
O26         C29 1.272       .   A
O27        Al39 1.762       .   S
O27         C31 1.272       .   A
O28        Al38 1.762       .   S
O28         C30 1.272       .   A
C29         C72 1.540   1_544   S
C30        C108 1.540   1_654   S
C31         C57 1.540   1_554   S
O32        Al38 1.762       .   S
O32         C42 1.272       .   A
O33        Al39 1.762       .   S
O33         C43 1.272       .   A
O34        Al40 1.762       .   S
O34         C44 1.272       .   A
O35        Al40 1.762       .   S
O35         C42 1.272       .   A
O36        Al39 1.762       .   S
O36         C44 1.272       .   A
O37        Al38 1.762       .   S
O37         C43 1.272       .   A
Al38        O41 1.735       .   S
Al39        O41 1.735       .   S
Al40        O41 1.735       .   S
C42         C84 1.540   1_545   S
C43         C96 1.540   1_655   S
C44         C45 1.540       .   S
C105       C106 1.402       .   A
C105       C110 1.420       .   A
C106       C107 1.399       .   A
C106       H115 1.085       .   S
C107       C108 1.420       .   A
C107       S111 1.781       .   S
C108       C109 1.402       .   A
C109       C110 1.399       .   A
C109       H116 1.085       .   S
C110       S112 1.781       .   S
S111       H114 1.343       .   S
S112       H113 1.343       .   S
C93         C94 1.402       .   A
C93         C98 1.420       .   A
C94         C95 1.399       .   A
C94        H103 1.085       .   S
C95         C96 1.420       .   A
C95         S99 1.781       .   S
C96         C97 1.402       .   A
C97         C98 1.399       .   A
C97        H104 1.085       .   S
C98        S100 1.781       .   S
S99        H102 1.343       .   S
S100       H101 1.343       .   S
C81         C82 1.402       .   A
C81         C86 1.420       .   A
C82         C83 1.399       .   A
C82         H91 1.085       .   S
C83         C84 1.420       .   A
C83         S87 1.781       .   S
C84         C85 1.402       .   A
C85         C86 1.399       .   A
C85         H92 1.085       .   S
C86         S88 1.781       .   S
S87         H90 1.343       .   S
S88         H89 1.343       .   S
C69         C70 1.402       .   A
C69         C74 1.420       .   A
C70         C71 1.399       .   A
C70         H79 1.085       .   S
C71         C72 1.420       .   A
C71         S75 1.781       .   S
C72         C73 1.402       .   A
C73         C74 1.399       .   A
C73         H80 1.085       .   S
C74         S76 1.781       .   S
S75         H78 1.343       .   S
S76         H77 1.343       .   S
C57         C58 1.402       .   A
C57         C62 1.420       .   A
C58         C59 1.399       .   A
C58         H67 1.085       .   S
C59         C60 1.420       .   A
C59         S63 1.781       .   S
C60         C61 1.402       .   A
C61         C62 1.399       .   A
C61         H68 1.085       .   S
C62         S64 1.781       .   S
S63         H66 1.343       .   S
S64         H65 1.343       .   S
C45         C46 1.402       .   A
C45         C50 1.420       .   A
C46         C47 1.399       .   A
C46         H55 1.085       .   S
C47         C48 1.420       .   A
C47         S51 1.781       .   S
C48         C49 1.402       .   A
C49         C50 1.399       .   A
C49         H56 1.085       .   S
C50         S52 1.781       .   S
S51         H54 1.343       .   S
S52         H53 1.343       .   S
