data_acs_v1-6c_Al_1_1-1B_2DoU_Ch
_audit_creation_date              2021-04-19
_audit_creation_method            'tobacco_3.0'
_symmetry_space_group_name_H-M    'P1'
_symmetry_Int_Tables_number       1
_symmetry_cell_setting            triclinic
loop_
_symmetry_equiv_pos_as_xyz
  x,y,z
_cell_length_a                    24.571672246227934
_cell_length_b                    24.57167227442972
_cell_length_c                    19.48550399968477
_cell_angle_alpha                 90.00000389323934
_cell_angle_beta                  89.9999964763987
_cell_angle_gamma                 120.00075708121767
loop_
_atom_site_label
_atom_site_type_symbol
_atom_site_fract_x
_atom_site_fract_y
_atom_site_fract_z
_atom_site_charge
O1         O    0.3360210200    0.7626715253    0.6856598667           0.704
O2         O    0.2373308043    0.5734517888    0.6856598626           0.704
O3         O    0.4265434792    0.6639813812    0.6856598592           0.704
O4         O    0.4265493871    0.7626733183    0.6856598633           0.704
O5         O    0.3360161390    0.5734526312    0.6856598589           0.704
O6         O    0.2373297774    0.6639787458    0.6856598663           0.704
C7         C    0.3913699701    0.7828421169    0.6628942239           0.704
C8         C    0.2171605957    0.6086300295    0.6628942232           0.704
C9         C    0.3913694382    0.6086278484    0.6628942167           0.704
O10        O    0.3360210181    0.7626715279    0.8143401411 0.7041999999999999
O11        O    0.2373308024    0.5734517914    0.8143401369           0.704
O12        O    0.4265434772    0.6639813838    0.8143401335           0.704
O13        O    0.4265493852    0.7626733209    0.8143401376           0.704
O14        O    0.3360161370    0.5734526338    0.8143401332           0.704
O15        O    0.2373297755    0.6639787484    0.8143401407           0.704
Al16      Al    0.2925408885    0.7074517808    0.7499948712             1.0
Al17      Al    0.2925398223    0.5851834239    0.7499948661             1.0
Al18      Al    0.4148111498    0.7074566556    0.7499948666             1.0
O19        O    0.3332988533    0.6666957204    0.7499948680           0.704
C20        C    0.3913699675    0.7828421204    0.8371057814           0.704
C21        C    0.2171605930    0.6086300330    0.8371057807           0.704
C22        C    0.3913694356    0.6086278519    0.8371057741           0.704
O23        O    0.6639129209    0.2373945298    0.1856598581           0.704
O24        O    0.7626031365    0.4266142664    0.1856598622           0.704
O25        O    0.5733904617    0.3360846740    0.1856598656           0.704
O26        O    0.5733845537    0.2373927369    0.1856598615           0.704
O27        O    0.6639178019    0.4266134240    0.1856598659           0.704
O28        O    0.7626041634    0.3360873093    0.1856598584           0.704
C29        C    0.6085639715    0.2172239374    0.1628942177           0.704
C30        C    0.7827733459    0.3914360248    0.1628942184           0.704
C31        C    0.6085645033    0.3914382059    0.1628942250           0.704
O32        O    0.6639129189    0.2373945324    0.3143401324           0.704
O33        O    0.7626031346    0.4266142690    0.3143401365           0.704
O34        O    0.5733904598    0.3360846766    0.3143401399           0.704
O35        O    0.5733845518    0.2373927395    0.3143401358           0.704
O36        O    0.6639178000    0.4266134266    0.3143401403           0.704
O37        O    0.7626041615    0.3360873119    0.3143401328           0.704
Al38      Al    0.7073930504    0.2926142769    0.2499948639             1.0
Al39      Al    0.7073941167    0.4148826338    0.2499948689             1.0
Al40      Al    0.5851227892    0.2926094022    0.2499948685             1.0
O41        O    0.6666350856    0.3333703374    0.2499948671           0.704
C42        C    0.6085639689    0.2172239409    0.3371057752           0.704
C43        C    0.7827733433    0.3914360283    0.3371057759           0.704
C44        C    0.6085645007    0.3914382094    0.3371057824           0.704
C135       C    0.9531818197    0.4618420823    0.0570667358         -0.1062
C136       C    0.0206885787    0.4731738837    0.0590085765          -0.487
C137       C    0.0661427140    0.5078400464    0.9994110077         -0.4098
C138       C    0.0439640862    0.5309804150    0.9378160616         -0.0836
C139       C    0.9760849847    0.5185351059    0.9351848942         -0.5033
C140       C    0.9307153378    0.4841389961    0.9949590103         -0.4116
C141       C    0.0898929899    0.5670106894    0.8791348258         -0.4532
C142       C    0.1575038671    0.5788016172    0.8818480508         -0.5917
C143       C    0.9085402979    0.4289387314    0.1177016402         -0.3345
C144       C    0.8424300718    0.4212644406    0.1181519483         -0.6998
H145       H    0.0371466633    0.4562590116    0.1047670630         -0.1721
H146       H    0.1162718328    0.5165445347    0.0009788203         -0.1758
H147       H    0.9595500120    0.5351355695    0.8892202143         -0.1815
H148       H    0.8805289931    0.4753071083    0.9933019364          -0.179
H157       H    0.0740230407    0.5852273262    0.8340377922         -0.1516
H158       H    0.1727159554    0.5590866208    0.9261683518         -0.1639
H159       H    0.9247994389    0.4111382389    0.1628571318         -0.1871
H160       H    0.8264265905    0.4397857814    0.0734191486          -0.167
C117       C    0.0438762106    0.5134295927    0.5616393772         -0.1062
C118       C    0.9774794008    0.4553993674    0.5618151572          -0.487
C119       C    0.9321395541    0.4444211728    0.5020363852         -0.4098
C120       C    0.9531993061    0.4916109946    0.4422222292         -0.0836
C121       C    0.0191227233    0.5503125003    0.4427019804         -0.5033
C122       C    0.0645864037    0.5611283448    0.5023260333         -0.4116
C123       C    0.9084393838    0.4797607196    0.3816826538         -0.4532
C124       C    0.8424300773    0.4212644468    0.3818480529         -0.5917
C125       C    0.0897058203    0.5231829070    0.6203844885         -0.3345
C126       C    0.1575038616    0.5788016109    0.6181519462         -0.6998
H127       H    0.9620241622    0.4203499391    0.6059777740         -0.1721
H128       H    0.8830487432    0.4012613272    0.5019523337         -0.1758
H129       H    0.0344100856    0.5855331839    0.3987223855         -0.1815
H130       H    0.1136361194    0.6043822215    0.5024771707          -0.179
H139       H    0.9242397059    0.5139652247    0.3366975172         -0.1516
H140       H    0.8262072800    0.3880236925    0.4277743698         -0.1639
H141       H    0.0737521049    0.4886115489    0.6650531228         -0.1871
H142       H    0.1737413459    0.6129372682    0.5730482234          -0.167
C99        C    0.4532367134    0.9336985027    0.5259799961         -0.1062
C100       C    0.4444489220    0.9551422754    0.4546742451          -0.487
C101       C    0.4889022024    0.0230025492    0.4307060766         -0.4098
C102       C    0.5420021097    0.0694139932    0.4781804454         -0.0836
C103       C    0.5500155037    0.0483742453    0.5500314027         -0.5033
C104       C    0.5057482356    0.9804060555    0.5738701686         -0.4116
C105       C    0.5873718637    0.1367242022    0.4534989796         -0.4532
C106       C    0.5787362189    0.1575692889    0.3818470499         -0.5917
C107       C    0.4099645004    0.8653189805    0.5488676494         -0.3345
C108       C    0.4211977200    0.8424967689    0.6181529492         -0.6998
H109       H    0.4052891264    0.9206723101    0.4194488932         -0.1721
H110       H    0.4826262268    0.0388345096    0.3777358693         -0.1758
H111       H    0.5889527207    0.0829775600    0.5853848679         -0.1815
H112       H    0.5119437435    0.9646243160    0.6269219705          -0.179
H121       H    0.6274462816    0.1708959677    0.4879763860         -0.1516
H122       H    0.5376092224    0.1237602465    0.3482157838         -0.1639
H123       H    0.3701808840    0.8312494402    0.5139923824         -0.1871
H124       H    0.4614871766    0.8763297238    0.6526681692          -0.167
C81        C    0.5463020104    0.0666680763    0.0255021200         -0.1062
C82        C    0.5540432379    0.0456512224    0.9535174832          -0.487
C83        C    0.5100894662    0.9775599546    0.9299166327         -0.4098
C84        C    0.4585401389    0.9304937658    0.9784321675         -0.0836
C85        C    0.4516030449    0.9511288850    0.0509265662         -0.5033
C86        C    0.4953634536    0.0193225901    0.0744067259         -0.4116
C87        C    0.4136315433    0.8629253393    0.9541613091         -0.4532
C88        C    0.4211977131    0.8424967614    0.8818470469         -0.5917
C89        C    0.5890258742    0.1352456477    0.0480748422         -0.3345
C90        C    0.5787362258    0.1575692963    0.1181529522         -0.6998
H91        H    0.5920492126    0.0806011999    0.9175288226         -0.1721
H92        H    0.5155831018    0.9620383118    0.8764529585         -0.1758
H93        H    0.4138279315    0.9160521555    0.0870328494         -0.1815
H94        H    0.4899541272    0.0347964292    0.1279481510          -0.179
H103       H    0.3746774708    0.8282492663    0.9894406573         -0.1516
H104       H    0.4612429944    0.8768382923    0.8473690273         -0.1639
H105       H    0.6276792773    0.1698139948    0.0124063800         -0.1871
H106       H    0.5395580819    0.1232232877    0.1534840219          -0.167
C63        C    0.5221412564    0.4795030297    0.0635549756         -0.1062
C64        C    0.4789938666    0.5077762143    0.0717215619          -0.487
C65        C    0.4602950894    0.5321541835    0.0083444557         -0.4098
C66        C    0.4849308794    0.5283968130    0.9368671411         -0.0836
C67        C    0.5291068668    0.5013116522    0.9288567964         -0.5033
C68        C    0.5475556778    0.4766373393    0.9922023592         -0.4116
C69        C    0.4649337278    0.5512938228    0.8733611067         -0.4532
C70        C    0.4211983022    0.5787997299    0.8818485040         -0.5917
C71        C    0.5391113638    0.4534040706    0.1266894923         -0.3345
C72        C    0.5787356368    0.4212663279    0.1181514952         -0.6998
H73        H    0.4605642393    0.5102945814    0.1246199262         -0.1721
H74        H    0.4280607684    0.5528099632    0.0143035333         -0.1758
H75        H    0.5478160859    0.4991513677    0.8759993079         -0.1815
H76        H    0.5799197112    0.4561141069    0.9862495230          -0.179
H85        H    0.4821342614    0.5475507573    0.8201959899         -0.1516
H86        H    0.4054081189    0.5839716091    0.9353123122         -0.1639
H87        H    0.5214683840    0.4569528367    0.1796887962         -0.1871
H88        H    0.5957140090    0.4169691390    0.0650350822          -0.167
C45        C    0.5230622723    0.4554443977    0.4761672980         -0.1062
C46        C    0.4815973750    0.4397676316    0.5405647856          -0.487
C47        C    0.4620397295    0.4865808176    0.5668999757         -0.4098
C48        C    0.4841371791    0.5491297146    0.5289015692         -0.0836
C49        C    0.5266534513    0.5653995201    0.4653301958         -0.5033
C50        C    0.5459555644    0.5184353863    0.4387864913         -0.4116
C51        C    0.4632549079    0.5951476763    0.5542334967         -0.4532
C52        C    0.4211982958    0.5787997356    0.6181515016         -0.5917
C53        C    0.5408613544    0.4076910996    0.4487854199         -0.3345
C54        C    0.5787356432    0.4212663221    0.3818484975         -0.6998
H55        H    0.4650418228    0.3933316022    0.5684931372         -0.1721
H56        H    0.4310450435    0.4748549399    0.6144050078         -0.1758
H57        H    0.5434957366    0.6120070866    0.4376689662         -0.1815
H58        H    0.5770819574    0.5302417120    0.3913612371          -0.179
H67        H    0.4785573606    0.6409860850    0.5255365536         -0.1516
H68        H    0.4073341918    0.5336587684    0.6477572939         -0.1639
H69        H    0.5251127854    0.3617542614    0.4774898889         -0.1871
H70        H    0.5938049651    0.4668371508    0.3526297497          -0.167
loop_
_geom_bond_atom_site_label_1
_geom_bond_atom_site_label_2
_geom_bond_distance
_geom_bond_site_symmetry_2
_ccdc_geom_bond_type
O1         Al16 1.762       .   S
O1           C7 1.272       .   A
O2         Al17 1.762       .   S
O2           C8 1.272       .   A
O3         Al18 1.762       .   S
O3           C9 1.272       .   A
O4         Al18 1.762       .   S
O4           C7 1.272       .   A
O5         Al17 1.762       .   S
O5           C9 1.272       .   A
O6         Al16 1.762       .   S
O6           C8 1.272       .   A
C7         C108 1.540       .   S
C8         C126 1.540       .   S
C9          C52 1.540       .   S
O10        Al16 1.762       .   S
O10         C20 1.272       .   A
O11        Al17 1.762       .   S
O11         C21 1.272       .   A
O12        Al18 1.762       .   S
O12         C22 1.272       .   A
O13        Al18 1.762       .   S
O13         C20 1.272       .   A
O14        Al17 1.762       .   S
O14         C22 1.272       .   A
O15        Al16 1.762       .   S
O15         C21 1.272       .   A
Al16        O19 1.735       .   S
Al17        O19 1.735       .   S
Al18        O19 1.735       .   S
C20         C88 1.540       .   S
C21        C142 1.540       .   S
C22         C70 1.540       .   S
O23        Al38 1.762       .   S
O23         C29 1.272       .   A
O24        Al39 1.762       .   S
O24         C30 1.272       .   A
O25        Al40 1.762       .   S
O25         C31 1.272       .   A
O26        Al40 1.762       .   S
O26         C29 1.272       .   A
O27        Al39 1.762       .   S
O27         C31 1.272       .   A
O28        Al38 1.762       .   S
O28         C30 1.272       .   A
C29         C90 1.540   1_544   S
C30        C144 1.540   1_654   S
C31         C72 1.540   1_554   S
O32        Al38 1.762       .   S
O32         C42 1.272       .   A
O33        Al39 1.762       .   S
O33         C43 1.272       .   A
O34        Al40 1.762       .   S
O34         C44 1.272       .   A
O35        Al40 1.762       .   S
O35         C42 1.272       .   A
O36        Al39 1.762       .   S
O36         C44 1.272       .   A
O37        Al38 1.762       .   S
O37         C43 1.272       .   A
Al38        O41 1.735       .   S
Al39        O41 1.735       .   S
Al40        O41 1.735       .   S
C42        C106 1.540   1_545   S
C43        C124 1.540   1_655   S
C44         C54 1.540       .   S
C143       C135 1.538       .   S
C136       C135 1.539       .   A
C135       C140 1.540       .   A
H145       C136 1.140       .   S
C137       C136 1.539       .   A
H146       C137 1.140       .   S
C137       C138 1.540       .   A
C141       C138 1.538       .   S
C139       C138 1.539       .   A
H147       C139 1.140       .   S
C140       C139 1.540       .   A
H148       C140 1.141       .   S
H157       C141 1.140       .   S
C142       C141 1.538       .   D
C142       H158 1.140       .   S
H159       C143 1.140       .   S
C143       C144 1.539       .   D
H160       C144 1.141       .   S
C125       C117 1.538       .   S
C118       C117 1.539       .   A
C117       C122 1.540       .   A
H127       C118 1.140       .   S
C119       C118 1.539       .   A
H128       C119 1.140       .   S
C119       C120 1.540       .   A
C123       C120 1.538       .   S
C121       C120 1.539       .   A
H129       C121 1.140       .   S
C122       C121 1.540       .   A
H130       C122 1.141       .   S
H139       C123 1.140       .   S
C124       C123 1.538       .   D
C124       H140 1.140       .   S
H141       C125 1.140       .   S
C125       C126 1.539       .   D
H142       C126 1.141       .   S
C107        C99 1.538       .   S
C100        C99 1.539       .   A
C99        C104 1.540       .   A
H109       C100 1.140       .   S
C101       C100 1.539       .   A
H110       C101 1.140       .   S
C101       C102 1.540       .   A
C105       C102 1.538       .   S
C103       C102 1.539       .   A
H111       C103 1.140       .   S
C104       C103 1.540       .   A
H112       C104 1.141       .   S
H121       C105 1.140       .   S
C106       C105 1.538       .   D
C106       H122 1.140       .   S
H123       C107 1.140       .   S
C107       C108 1.539       .   D
H124       C108 1.141       .   S
C89         C81 1.538       .   S
C82         C81 1.539       .   A
C81         C86 1.540       .   A
H91         C82 1.140       .   S
C83         C82 1.539       .   A
H92         C83 1.140       .   S
C83         C84 1.540       .   A
C87         C84 1.538       .   S
C85         C84 1.539       .   A
H93         C85 1.140       .   S
C86         C85 1.540       .   A
H94         C86 1.141       .   S
H103        C87 1.140       .   S
C88         C87 1.538       .   D
C88        H104 1.140       .   S
H105        C89 1.140       .   S
C89         C90 1.539       .   D
H106        C90 1.141       .   S
C71         C63 1.538       .   S
C64         C63 1.539       .   A
C63         C68 1.540       .   A
H73         C64 1.140       .   S
C65         C64 1.539       .   A
H74         C65 1.140       .   S
C65         C66 1.540       .   A
C69         C66 1.538       .   S
C67         C66 1.539       .   A
H75         C67 1.140       .   S
C68         C67 1.540       .   A
H76         C68 1.141       .   S
H85         C69 1.140       .   S
C70         C69 1.538       .   D
C70         H86 1.140       .   S
H87         C71 1.140       .   S
C71         C72 1.539       .   D
H88         C72 1.141       .   S
C53         C45 1.538       .   S
C46         C45 1.539       .   A
C45         C50 1.540       .   A
H55         C46 1.140       .   S
C47         C46 1.539       .   A
H56         C47 1.140       .   S
C47         C48 1.540       .   A
C51         C48 1.538       .   S
C49         C48 1.539       .   A
H57         C49 1.140       .   S
C50         C49 1.540       .   A
H58         C50 1.141       .   S
H67         C51 1.140       .   S
C52         C51 1.538       .   D
C52         H68 1.140       .   S
H69         C53 1.140       .   S
C53         C54 1.539       .   D
H70         C54 1.141       .   S
