data_acs_v1-6c_Al_1_Ch_1-1B_4CN_Ch
_audit_creation_date              2021-04-19
_audit_creation_method            'tobacco_3.0'
_symmetry_space_group_name_H-M    'P1'
_symmetry_Int_Tables_number       1
_symmetry_cell_setting            triclinic
loop_
_symmetry_equiv_pos_as_xyz
  x,y,z
_cell_length_a                    17.05529201514209
_cell_length_b                    17.004060476526345
_cell_length_c                    13.982355940026785
_cell_angle_alpha                 89.5359479929805
_cell_angle_beta                  90.28776195762372
_cell_angle_gamma                 119.55804119812778
loop_
_atom_site_label
_atom_site_type_symbol
_atom_site_fract_x
_atom_site_fract_y
_atom_site_fract_z
_atom_site_charge
O1         O    0.3336416859    0.8039874509    0.8527898580         -0.8145
C2         C    0.4131246057    0.5841862217    0.6199323511           0.979
O3         O    0.4689233955    0.6486968558    0.6644839192         -0.7057
O4         O    0.4702177037    0.8000001046    0.6473895633         -0.7416
Al5       Al    0.4575382854    0.7270125355    0.7550208729          1.4898
C6         C    0.4227147841    0.8344155617    0.6227139743          0.9316
O7         O    0.2012656524    0.6663946377    0.6399846521         -0.8038
O8         O    0.1959920333    0.5324624233    0.8617704632         -0.7394
Al9       Al    0.2731693205    0.7284840327    0.7460024698          1.9012
O10        O    0.1797787749    0.5270200695    0.6690519184         -0.7301
O11        O    0.3501231522    0.5265793882    0.8474228478         -0.7286
O12        O    0.3320555838    0.5292266075    0.6517857122         -0.7852
O13        O    0.4697825480    0.6652227419    0.8575161077         -0.7672
O14        O    0.3329683499    0.6651268739    0.7532085306         -1.1285
O15        O    0.4702524784    0.8202962679    0.8412363047         -0.7205
C16        C    0.4153929732    0.8384980764    0.8772514924          0.9867
C17        C    0.1643727142    0.5815327499    0.6240870648          0.9507
Al18      Al    0.2723156208    0.5415270624    0.7573105500          1.5556
O19        O    0.3501088957    0.8192546870    0.6573916466         -0.7667
C20        C    0.4249864435    0.5812078975    0.8797900782          0.9923
C21        C    0.1592084793    0.5803594928    0.8762250392          0.9411
O22        O    0.1800196575    0.6535372376    0.8294514671         -0.8199
O23        O    0.8043834326    0.3341726169    0.1469605015         -0.8145
C24        C    0.5850438813    0.4138355781    0.3800820777           0.979
O25        O    0.6495197077    0.4698402615    0.3353060475         -0.7057
O26        O    0.8001769515    0.4707919720    0.3521153657         -0.7416
Al27      Al    0.7277239446    0.4584780645    0.2446434930          1.4898
C28        C    0.8342971611    0.4229668410    0.3768150584          0.9316
O29        O    0.6665447838    0.2010089041    0.3602698531         -0.8038
O30        O    0.5336902699    0.1965391448    0.1387430503         -0.7394
Al31      Al    0.7287945555    0.2733419604    0.2540018730          1.9012
O32        O    0.5277574256    0.1797893194    0.3315028105         -0.7301
O33        O    0.5281065513    0.3512661894    0.1528152450         -0.7286
O34        O    0.5302198662    0.3326309825    0.3484819408         -0.7852
O35        O    0.6664614408    0.4711526620    0.1422404709         -0.7672
O36        O    0.6658299562    0.3335272846    0.2468030145         -1.1285
O37        O    0.8208742199    0.4712711166    0.1582297198         -0.7205
C38        C    0.8389818767    0.4162443879    0.1222823179          0.9867
C39        C    0.5819087269    0.1640988593    0.3763946538          0.9507
Al40      Al    0.5426129033    0.2728900258    0.2430446584          1.5556
O41        O    0.8191365898    0.3501862568    0.3423005020         -0.7667
C42        C    0.5827480443    0.4264014868    0.1202066401          0.9923
C43        C    0.5813571133    0.1595472507    0.1242672786          0.9411
O44        O    0.6541673944    0.1801775543    0.1708656565         -0.8199
C115       C    0.0762379050    0.5378373400    0.9399783738         -0.0499
C116       C    0.9999167585    0.4566442169    0.9130760513         -0.0211
C117       C    0.9223043127    0.4175570255    0.9719521608          0.0288
C118       C    0.9219524511    0.4587665406    0.0585289833         -0.0499
C119       C    0.9986361708    0.5394248623    0.0859475000         -0.0209
C120       C    0.0755549497    0.5795350188    0.0260702367          0.0288
C121       C    0.9987943005    0.4138426793    0.8247497620          0.3753
C122       C    0.9990670717    0.5832669369    0.1732729228          0.3752
C123       C    0.1533825781    0.6617016298    0.0553781324          0.3594
C124       C    0.8451314260    0.3344453439    0.9435737019          0.3594
N125       N    0.2167848577    0.7276838745    0.0798430166         -0.3888
N126       N    0.7830617669    0.2664975992    0.9210151198         -0.3888
N127       N    0.9998362645    0.6205121847    0.2429013746         -0.3832
N128       N    0.9961993393    0.3792494199    0.7525485321         -0.3832
C101       C    0.0772318494    0.5396709086    0.5588065668         -0.0499
C102       C    0.0692791809    0.5911562570    0.4842546961         -0.0211
C103       C    0.9908334043    0.5540024337    0.4264575335          0.0288
C104       C    0.9214380259    0.4648286823    0.4420955564         -0.0499
C105       C    0.9298349339    0.4130015556    0.5159661014         -0.0209
C106       C    0.0074375790    0.4508215394    0.5750705685          0.0288
C107       C    0.1391378311    0.6824376049    0.4675162345          0.3753
C108       C    0.8591236637    0.3223811548    0.5340293947          0.3752
C109       C    0.0150378620    0.3968056282    0.6499109013          0.3594
C110       C    0.9840232639    0.6073979305    0.3504083416          0.3594
N111       N    0.0215598577    0.3525330709    0.7097504862         -0.3888
N112       N    0.9791295307    0.6504061130    0.2880620386         -0.3888
N113       N    0.8016710064    0.2494703677    0.5507278278         -0.3832
N114       N    0.1943670872    0.7570567955    0.4541997680         -0.3832
C87        C    0.5401298617    0.0775767604    0.4410387069         -0.0499
C88        C    0.4594606224    0.0515207611    0.4905872790         -0.0211
C89        C    0.4220957380    0.9736129506    0.5499981518          0.0288
C90        C    0.4644936493    0.9209376605    0.5580699212         -0.0499
C91        C    0.5446257059    0.9464325044    0.5076826255         -0.0209
C92        C    0.5830179550    0.0254247008    0.4498787907          0.0288
C93        C    0.4154666496    0.1046681454    0.4836880494          0.3753
C94        C    0.5896646678    0.8943768168    0.5161964503          0.3752
C95        C    0.6646687961    0.0502380501    0.3986401872          0.3602
C96        C    0.3394955925    0.9477968323    0.5997346099          0.3594
N97        N    0.7302331090    0.0695925466    0.3562381586         -0.3888
N98        N    0.2719571312    0.9263726387    0.6390523432         -0.3888
N99        N    0.6278682431    0.8538813086    0.5237951947         -0.3832
N100       N    0.3799271643    0.1479514532    0.4802841427         -0.3832
C73        C    0.5382081260    0.0760777329    0.0600456882         -0.0499
C74        C    0.5924790125    0.0554898774    0.0018894320         -0.0211
C75        C    0.5525046731    0.9788475212    0.9417495927          0.0288
C76        C    0.4585419606    0.9219675942    0.9414730828         -0.0499
C77        C    0.4043525634    0.9419953943    0.0004231175         -0.0209
C78        C    0.4441814185    0.0197204320    0.0590413688          0.0288
C79        C    0.6884369194    0.1129839788    0.0007778630          0.3753
C80        C    0.3082374738    0.8855905099    0.0000074367          0.3752
C81        C    0.3878535769    0.0389298008    0.1190599761          0.3594
C82        C    0.6089674971    0.9586365882    0.8831541248          0.3594
N83        N    0.3421770215    0.0537417247    0.1685326771         -0.3888
N84        N    0.6549366163    0.9417587436    0.8366008842         -0.3888
N85        N    0.2301490824    0.8415247100    0.9991085364         -0.3832
N86        N    0.7661231020    0.1598329798    0.9977047737         -0.3832
C59        C    0.4645715021    0.5423643461    0.9401146670         -0.0499
C60        C    0.5323075621    0.5264100260    0.9045693698         -0.0211
C61        C    0.5709849784    0.4868987821    0.9642583066          0.0288
C62        C    0.5431629856    0.4652450382    0.0598820512         -0.0499
C63        C    0.4761392165    0.4821303080    0.0957307232         -0.0209
C64        C    0.4360968555    0.5198584348    0.0354480498          0.0288
C65        C    0.5612435772    0.5475747128    0.8070510216          0.3753
C66        C    0.4458202371    0.4591696891    0.1926599509          0.3752
C67        C    0.3680173348    0.5369753491    0.0733592311          0.3594
C68        C    0.6403286029    0.4714447621    0.9268978160          0.3594
N69        N    0.3136621400    0.5518371161    0.1045651939         -0.3888
N70        N    0.6973032590    0.4600060190    0.8968157770         -0.3888
N71        N    0.4193174671    0.4393483404    0.2704860316         -0.3832
N72        N    0.5842073070    0.5627478320    0.7277123009         -0.3832
C45        C    0.4590520534    0.5386778268    0.5558574482         -0.0499
C46        C    0.5486981739    0.5908070056    0.5250374106         -0.0211
C47        C    0.5884810806    0.5513109054    0.4682410481          0.0288
C48        C    0.5391164336    0.4593439729    0.4441569806         -0.0499
C49        C    0.4497979141    0.4069701620    0.4758734181         -0.0209
C50        C    0.4093904804    0.4469463603    0.5309536727          0.0288
C51        C    0.6000010406    0.6848759594    0.5484271489          0.3753
C52        C    0.3978545886    0.3133745065    0.4507565089          0.3752
C53        C    0.3182468909    0.3923691104    0.5630480615          0.3594
C54        C    0.6801984199    0.6054410175    0.4377491160          0.3594
N55        N    0.2447501505    0.3477462871    0.5899894266         -0.3888
N56        N    0.7548977538    0.6491566583    0.4141031822         -0.3888
N57        N    0.3543414805    0.2378984131    0.4294658360         -0.3832
N58        N    0.6418966916    0.7615758905    0.5652382506         -0.3832
loop_
_geom_bond_atom_site_label_1
_geom_bond_atom_site_label_2
_geom_bond_distance
_geom_bond_site_symmetry_2
_ccdc_geom_bond_type
O1          C16 1.264       .   A
O1          Al9 1.910       .   S
C2          O12 1.307       .   A
C2           O3 1.213       .   A
C2          C45 1.622       .   S
O3          Al5 1.923       .   S
O4          Al5 1.887       .   S
O4           C6 1.257       .   A
Al5         O13 1.841       .   S
Al5         O14 1.849       .   S
Al5         O15 1.925       .   S
C6          O19 1.234       .   A
C6          C90 1.562       .   S
O7          Al9 1.883       .   S
O7          C17 1.279       .   A
O8         Al18 1.915       .   S
O8          C21 1.267       .   A
Al9         O14 1.814       .   S
Al9         O22 1.873       .   S
Al9         O19 1.904       .   S
O10        Al18 1.918       .   S
O10         C17 1.246       .   A
O11         C20 1.236       .   A
O11        Al18 1.930       .   S
O12        Al18 1.868       .   S
O13         C20 1.281       .   A
O14        Al18 1.829       .   S
O15         C16 1.232       .   A
C16         C76 1.532       .   S
C17        C101 1.582       .   S
C20         C59 1.424       .   S
C21         O22 1.287       .   A
C21        C115 1.521       .   S
O23         C38 1.264       .   A
O23        Al31 1.910       .   S
C24         O34 1.307       .   A
C24         O25 1.213       .   A
C24         C48 1.622       .   S
O25        Al27 1.923       .   S
O26        Al27 1.887       .   S
O26         C28 1.257       .   A
Al27        O35 1.841       .   S
Al27        O36 1.849       .   S
Al27        O37 1.925       .   S
C28         O41 1.234       .   A
C28        C104 1.582   1_655   S
O29        Al31 1.883       .   S
O29         C39 1.279       .   A
O30        Al40 1.915       .   S
O30         C43 1.267       .   A
Al31        O36 1.814       .   S
Al31        O44 1.873       .   S
Al31        O41 1.904       .   S
O32        Al40 1.918       .   S
O32         C39 1.246       .   A
O33         C42 1.236       .   A
O33        Al40 1.930       .   S
O34        Al40 1.868       .   S
O35         C42 1.281       .   A
O36        Al40 1.829       .   S
O37         C38 1.232       .   A
C38        C118 1.521   1_654   S
C39         C87 1.562   1_545   S
C42         C62 1.424   1_554   S
C43         O44 1.287       .   A
C43         C73 1.532   1_544   S
C115       C116 1.404       .   A
C115       C120 1.405       .   A
C116       C117 1.416       .   A
C116       C121 1.434       .   S
C117       C118 1.405       .   A
C117       C124 1.434       .   S
C118       C119 1.404       .   A
C119       C120 1.416       .   A
C119       C122 1.434       .   S
C120       C123 1.434       .   S
C121       N128 1.162       .   T
C122       N127 1.162       .   T
C123       N125 1.162       .   T
C124       N126 1.162       .   T
C101       C102 1.404       .   A
C101       C106 1.405       .   A
C102       C103 1.416       .   A
C102       C107 1.434       .   S
C103       C104 1.405       .   A
C103       C110 1.434       .   S
C104       C105 1.404       .   A
C105       C106 1.416       .   A
C105       C108 1.434       .   S
C106       C109 1.434       .   S
C107       N114 1.162       .   T
C108       N113 1.162       .   T
C109       N111 1.162       .   T
C110       N112 1.162       .   T
C87         C88 1.404       .   A
C87         C92 1.405       .   A
C88         C89 1.416       .   A
C88         C93 1.434       .   S
C89         C90 1.405       .   A
C89         C96 1.434       .   S
C90         C91 1.404       .   A
C91         C92 1.416       .   A
C91         C94 1.434       .   S
C92         C95 1.434       .   S
C93        N100 1.162       .   T
C94         N99 1.162       .   T
C95         N97 1.162       .   T
C96         N98 1.162       .   T
C73         C74 1.404       .   A
C73         C78 1.405       .   A
C74         C75 1.416       .   A
C74         C79 1.434       .   S
C75         C76 1.405       .   A
C75         C82 1.434       .   S
C76         C77 1.404       .   A
C77         C78 1.416       .   A
C77         C80 1.434       .   S
C78         C81 1.434       .   S
C79         N86 1.162       .   T
C80         N85 1.162       .   T
C81         N83 1.162       .   T
C82         N84 1.162       .   T
C59         C60 1.404       .   A
C59         C64 1.405       .   A
C60         C61 1.416       .   A
C60         C65 1.434       .   S
C61         C62 1.405       .   A
C61         C68 1.434       .   S
C62         C63 1.404       .   A
C63         C64 1.416       .   A
C63         C66 1.434       .   S
C64         C67 1.434       .   S
C65         N72 1.162       .   T
C66         N71 1.162       .   T
C67         N69 1.162       .   T
C68         N70 1.162       .   T
C45         C46 1.404       .   A
C45         C50 1.405       .   A
C46         C47 1.416       .   A
C46         C51 1.434       .   S
C47         C48 1.405       .   A
C47         C54 1.434       .   S
C48         C49 1.404       .   A
C49         C50 1.416       .   A
C49         C52 1.434       .   S
C50         C53 1.434       .   S
C51         N58 1.162       .   T
C52         N57 1.162       .   T
C53         N55 1.162       .   T
C54         N56 1.162       .   T
