data_acs_v1-6c_Al_1_1-1B_2NO2_Ch
_audit_creation_date              2021-04-19
_audit_creation_method            'tobacco_3.0'
_symmetry_space_group_name_H-M    'P1'
_symmetry_Int_Tables_number       1
_symmetry_cell_setting            triclinic
loop_
_symmetry_equiv_pos_as_xyz
  x,y,z
_cell_length_a                    17.00644203549128
_cell_length_b                    17.00644216177632
_cell_length_c                    13.486217429470685
_cell_angle_alpha                 90.00001034381951
_cell_angle_beta                  89.99999006280017
_cell_angle_gamma                 120.00086898512663
loop_
_atom_site_label
_atom_site_type_symbol
_atom_site_fract_x
_atom_site_fract_y
_atom_site_fract_z
_atom_site_charge
O1         O    0.3372316132    0.8053640545    0.6570384409           0.642
O2         O    0.1946391631    0.5319705565    0.6570384258           0.642
O3         O    0.4680224464    0.6627721644    0.6570384112           0.642
O4         O    0.4680311430    0.8053667928    0.6570384270           0.642
O5         O    0.3372242531    0.5319719347    0.6570384107           0.642
O6         O    0.1946378266    0.6627680479    0.6570384403           0.642
C7         C    0.4172023443    0.8345075378    0.6241455950           0.642
C8         C    0.1654963803    0.5827976550    0.6241455939           0.642
C9         C    0.4172012925    0.5827947880    0.6241455672           0.642
O10        O    0.3372316047    0.8053640640    0.8429615889           0.642
O11        O    0.1946391547    0.5319705660    0.8429615739           0.642
O12        O    0.4680224380    0.6627721739    0.8429615593           0.642
O13        O    0.4680311346    0.8053668022    0.8429615751           0.642
O14        O    0.3372242447    0.5319719442    0.8429615587           0.642
O15        O    0.1946378182    0.6627680574    0.8429615883           0.642
Al16      Al    0.2744094357    0.7255799718    0.7499925978             1.0
Al17      Al    0.2744076964    0.5489210530    0.7499925783             1.0
Al18      Al    0.4510711076    0.7255872147    0.7499925790             1.0
O19        O    0.3332983432    0.6666938166    0.7499925850           0.642
C20        C    0.4172023329    0.8345075506    0.8758544243           0.642
C21        C    0.1654963689    0.5827976678    0.8758544232           0.642
C22        C    0.4172012811    0.5827948008    0.8758543964           0.642
O23        O    0.6627027395    0.1947015792    0.1570384121           0.642
O24        O    0.8052951895    0.4680950772    0.1570384272           0.642
O25        O    0.5319119062    0.3372934692    0.1570384418           0.642
O26        O    0.5319032097    0.1946988409    0.1570384260           0.642
O27        O    0.6627100995    0.4680936989    0.1570384424           0.642
O28        O    0.8052965260    0.3372975858    0.1570384128           0.642
C29        C    0.5827320113    0.1655580925    0.1241455768           0.642
C30        C    0.8344379753    0.4172679753    0.1241455779           0.642
C31        C    0.5827330631    0.4172708423    0.1241456046           0.642
O32        O    0.6627027311    0.1947015887    0.3429615602           0.642
O33        O    0.8052951811    0.4680950867    0.3429615753           0.642
O34        O    0.5319118978    0.3372934787    0.3429615899           0.642
O35        O    0.5319032012    0.1946988504    0.3429615741           0.642
O36        O    0.6627100911    0.4680937084    0.3429615904           0.642
O37        O    0.8052965176    0.3372975953    0.3429615608           0.642
Al38      Al    0.7255249085    0.2744856713    0.2499925733             1.0
Al39      Al    0.7255266479    0.4511445902    0.2499925929             1.0
Al40      Al    0.5488632366    0.2744784285    0.2499925921             1.0
O41        O    0.6666360010    0.3333718265    0.2499925861           0.642
C42        C    0.5827319999    0.1655581054    0.3758544061           0.642
C43        C    0.8344379639    0.4172679882    0.3758544072           0.642
C44        C    0.5827330517    0.4172708552    0.3758544339           0.642
C115       C    0.9954210002    0.4761030761    0.9002806721         -0.4777
C116       C    0.0793012391    0.5396999739    0.9405000830         -0.3076
C117       C    0.0817393156    0.5624265224    0.0407447979         -0.4306
C118       C    0.0045551639    0.5232944491    0.0999726449          -0.438
C119       C    0.9206331051    0.4603656693    0.0594999180         -0.3835
C120       C    0.9181187204    0.4371299569    0.9594702874         -0.3154
N121       N    0.8336098797    0.3649593305    0.9140600196          0.3097
H122       H    0.9905773240    0.4558158595    0.8233763344         -0.2013
H123       H    0.0089454005    0.5421363619    0.1774724508         -0.2042
N124       N    0.1661924493    0.6333325694    0.0882094417          0.3867
O125       O    0.8212083361    0.3732944259    0.8258662180         -0.7478
O126       O    0.7832682827    0.3005833402    0.9672554152         -0.7472
O127       O    0.1986400940    0.7103915387    0.0548259713         -0.7542
O128       O    0.1938114233    0.6098020637    0.1598508970         -0.7549
C101       C    0.9191796619    0.4275580374    0.5359744239         -0.4777
C102       C    0.9206331137    0.4603656825    0.4405000859         -0.3076
C103       C    0.0026476859    0.5331972269    0.4064520316         -0.4306
C104       C    0.0810260878    0.5719925471    0.4637807781          -0.438
C105       C    0.0793012305    0.5396999607    0.5594999151         -0.3835
C106       C    0.9975458740    0.4665493605    0.5934721769         -0.3154
N107       N    0.9927691177    0.4233378991    0.6900394406          0.3097
H108       H    0.8574820572    0.3707151758    0.5648809653         -0.2013
H109       H    0.1435204114    0.6280571255    0.4349237733         -0.2042
N110       N    0.0093175765    0.5763429967    0.3090172660          0.3867
O111       O    0.9208676409    0.3916244503    0.7359022578         -0.7478
O112       O    0.0602888516    0.4199913712    0.7159167728         -0.7472
O113       O    0.9628762296    0.6122476573    0.2978891430         -0.7542
O114       O    0.0640023844    0.5763997990    0.2497800994         -0.7549
C87        C    0.5269316716    0.9352645427    0.4894990190         -0.4777
C88        C    0.4602993972    0.9206993671    0.5595008734         -0.3076
C89        C    0.4346836644    0.9869119480    0.5684209360         -0.4306
C90        C    0.4724805785    0.0644783272    0.5098009347          -0.438
C91        C    0.5396349470    0.0793662761    0.4404991277         -0.3835
C92        C    0.5649594941    0.0130181143    0.4310270633         -0.3154
N93        N    0.6291730758    0.0199467298    0.3530734738          0.3097
H94        H    0.5480848707    0.8853770525    0.4793726766         -0.2013
H95        H    0.4507572552    0.1141884912    0.5183288419         -0.2042
N96        N    0.3690564928    0.9803451353    0.6448069456          0.3867
O97        O    0.6789618052    0.9889017331    0.3721795752         -0.7478
O98        O    0.6261011128    0.0538925813    0.2738078971         -0.7472
O99        O    0.3912774055    0.9813849494    0.7314382631         -0.7542
O100       O    0.3003262261    0.9790161673    0.6149725005         -0.7549
C73        C    0.4848140062    0.9174867682    0.0387699830         -0.4777
C74        C    0.4602993838    0.9206993573    0.9404991244         -0.3076
C75        C    0.4762542708    0.0044588061    0.9036772334         -0.4306
C76        C    0.5159110440    0.0828102318    0.9610489248          -0.438
C77        C    0.5396349605    0.0793662858    0.0595008766         -0.3835
C78        C    0.5242589589    0.9958385114    0.0962907849         -0.3154
N79        N    0.5553402851    0.9887820791    0.1964824519          0.3097
H80        H    0.4745987024    0.8543587017    0.0699505835         -0.2013
H81        H    0.5276934209    0.1466630787    0.9300322903         -0.2042
N82        N    0.4472328223    0.0133431845    0.8027217837          0.3867
O83        O    0.5093700988    0.9173174503    0.2416489242         -0.7478
O84        O    0.6264012839    0.0540192985    0.2259906019         -0.7472
O85        O    0.3655128848    0.9705097851    0.7858547094         -0.7542
O86        O    0.5068771689    0.0662008645    0.7463922609         -0.7549
C59        C    0.5780465146    0.4999575535    0.9682086152         -0.4777
C60        C    0.5396346787    0.4603671898    0.0594997112         -0.3076
C61        C    0.4613507331    0.4615363405    0.0894783104         -0.4306
C62        C    0.4214088615    0.4994339365    0.0312942184          -0.438
C63        C    0.4602996655    0.5396984534    0.9405002899         -0.3835
C64        C    0.5382352462    0.5381268696    0.9100993042         -0.3154
N65        N    0.5781189536    0.5716733634    0.8110482307          0.3097
H66        H    0.6380208823    0.4997059029    0.9416392460         -0.2013
H67        H    0.3605363462    0.4987972509    0.0565627234         -0.2042
N68        N    0.4192548612    0.4266015729    0.1876966428          0.3867
O69        O    0.6608815661    0.6064983838    0.8032895499         -0.7478
O70        O    0.5251553111    0.5597972937    0.7431398886         -0.7472
O71        O    0.4658253017    0.4654440417    0.2603860887         -0.7542
O72        O    0.3400378439    0.3649107253    0.1878467456         -0.7549
C45        C    0.5169002925    0.5876941299    0.4800203837         -0.4777
C46        C    0.4602996556    0.5396984625    0.5594997163         -0.3076
C47        C    0.4444959311    0.4518525817    0.5776911895         -0.4306
C48        C    0.4837440938    0.4126723270    0.5204435859          -0.438
C49        C    0.5396346886    0.4603671806    0.4405002848         -0.3835
C50        C    0.5559735099    0.5483928520    0.4225374113         -0.3154
N51        N    0.6209772189    0.6059990627    0.3453296738          0.3097
H52        H    0.5317523744    0.6561774206    0.4639398584         -0.2013
H53        H    0.4703930594    0.3446369461    0.5368823451         -0.2042
N54        N    0.3809434488    0.3936338273    0.6560378070          0.3867
O55        O    0.6049706495    0.6601262176    0.3022766640         -0.7478
O56        O    0.6876826315    0.5973045753    0.3319846536         -0.7472
O57        O    0.3013761733    0.3734981213    0.6465080775         -0.7542
O58        O    0.4124526733    0.3669203095    0.7209018728         -0.7549
loop_
_geom_bond_atom_site_label_1
_geom_bond_atom_site_label_2
_geom_bond_distance
_geom_bond_site_symmetry_2
_ccdc_geom_bond_type
O1         Al16 1.762       .   S
O1           C7 1.272       .   A
O2         Al17 1.762       .   S
O2           C8 1.272       .   A
O3         Al18 1.762       .   S
O3           C9 1.272       .   A
O4         Al18 1.762       .   S
O4           C7 1.272       .   A
O5         Al17 1.762       .   S
O5           C9 1.272       .   A
O6         Al16 1.762       .   S
O6           C8 1.272       .   A
C7          C88 1.540       .   S
C8         C105 1.540       .   S
C9          C46 1.540       .   S
O10        Al16 1.762       .   S
O10         C20 1.272       .   A
O11        Al17 1.762       .   S
O11         C21 1.272       .   A
O12        Al18 1.762       .   S
O12         C22 1.272       .   A
O13        Al18 1.762       .   S
O13         C20 1.272       .   A
O14        Al17 1.762       .   S
O14         C22 1.272       .   A
O15        Al16 1.762       .   S
O15         C21 1.272       .   A
Al16        O19 1.735       .   S
Al17        O19 1.735       .   S
Al18        O19 1.735       .   S
C20         C74 1.540       .   S
C21        C116 1.540       .   S
C22         C63 1.540       .   S
O23        Al38 1.762       .   S
O23         C29 1.272       .   A
O24        Al39 1.762       .   S
O24         C30 1.272       .   A
O25        Al40 1.762       .   S
O25         C31 1.272       .   A
O26        Al40 1.762       .   S
O26         C29 1.272       .   A
O27        Al39 1.762       .   S
O27         C31 1.272       .   A
O28        Al38 1.762       .   S
O28         C30 1.272       .   A
C29         C77 1.540   1_544   S
C30        C119 1.540   1_654   S
C31         C60 1.540   1_554   S
O32        Al38 1.762       .   S
O32         C42 1.272       .   A
O33        Al39 1.762       .   S
O33         C43 1.272       .   A
O34        Al40 1.762       .   S
O34         C44 1.272       .   A
O35        Al40 1.762       .   S
O35         C42 1.272       .   A
O36        Al39 1.762       .   S
O36         C44 1.272       .   A
O37        Al38 1.762       .   S
O37         C43 1.272       .   A
Al38        O41 1.735       .   S
Al39        O41 1.735       .   S
Al40        O41 1.735       .   S
C42         C91 1.540   1_545   S
C43        C102 1.540   1_655   S
C44         C49 1.540       .   S
C115       C116 1.399       .   A
C115       C120 1.391       .   A
C115       H122 1.083       .   S
C116       C117 1.401       .   A
C117       C118 1.389       .   A
C117       N124 1.482       .   S
C118       C119 1.397       .   A
C118       H123 1.085       .   S
C119       C120 1.400       .   A
C120       N121 1.477       .   S
N121       O125 1.228       .   D
N121       O126 1.228       .   S
N124       O127 1.225       .   S
N124       O128 1.226       .   D
C101       C102 1.399       .   A
C101       C106 1.391       .   A
C101       H108 1.083       .   S
C102       C103 1.401       .   A
C103       C104 1.389       .   A
C103       N110 1.482       .   S
C104       C105 1.397       .   A
C104       H109 1.085       .   S
C105       C106 1.400       .   A
C106       N107 1.477       .   S
N107       O111 1.228       .   D
N107       O112 1.228       .   S
N110       O113 1.225       .   S
N110       O114 1.226       .   D
C87         C88 1.399       .   A
C87         C92 1.391       .   A
C87         H94 1.083       .   S
C88         C89 1.401       .   A
C89         C90 1.389       .   A
C89         N96 1.482       .   S
C90         C91 1.397       .   A
C90         H95 1.085       .   S
C91         C92 1.400       .   A
C92         N93 1.477       .   S
N93         O97 1.228       .   D
N93         O98 1.228       .   S
N96         O99 1.225       .   S
N96        O100 1.226       .   D
C73         C74 1.399       .   A
C73         C78 1.391       .   A
C73         H80 1.083       .   S
C74         C75 1.401       .   A
C75         C76 1.389       .   A
C75         N82 1.482       .   S
C76         C77 1.397       .   A
C76         H81 1.085       .   S
C77         C78 1.400       .   A
C78         N79 1.477       .   S
N79         O83 1.228       .   D
N79         O84 1.228       .   S
N82         O85 1.225       .   S
N82         O86 1.226       .   D
C59         C60 1.399       .   A
C59         C64 1.391       .   A
C59         H66 1.083       .   S
C60         C61 1.401       .   A
C61         C62 1.389       .   A
C61         N68 1.482       .   S
C62         C63 1.397       .   A
C62         H67 1.085       .   S
C63         C64 1.400       .   A
C64         N65 1.477       .   S
N65         O69 1.228       .   D
N65         O70 1.228       .   S
N68         O71 1.225       .   S
N68         O72 1.226       .   D
C45         C46 1.399       .   A
C45         C50 1.391       .   A
C45         H52 1.083       .   S
C46         C47 1.401       .   A
C47         C48 1.389       .   A
C47         N54 1.482       .   S
C48         C49 1.397       .   A
C48         H53 1.085       .   S
C49         C50 1.400       .   A
C50         N51 1.477       .   S
N51         O55 1.228       .   D
N51         O56 1.228       .   S
N54         O57 1.225       .   S
N54         O58 1.226       .   D
