data_acs_v1-6c_Al_1_Ch_1-1B_1TrU
_audit_creation_date              2021-04-19
_audit_creation_method            'tobacco_3.0'
_symmetry_space_group_name_H-M    'P1'
_symmetry_Int_Tables_number       1
_symmetry_cell_setting            triclinic
loop_
_symmetry_equiv_pos_as_xyz
  x,y,z
_cell_length_a                    21.76121134787218
_cell_length_b                    21.69274024796402
_cell_length_c                    17.8383320001435
_cell_angle_alpha                 89.4542257944212
_cell_angle_beta                  90.32989957275413
_cell_angle_gamma                 119.56963944249027
loop_
_atom_site_label
_atom_site_type_symbol
_atom_site_fract_x
_atom_site_fract_y
_atom_site_fract_z
_atom_site_charge
O1         O    0.3335867365    0.7742774287    0.8304768862          -1.478
C2         C    0.3958522282    0.6020774579    0.6481325815          0.3155
O3         O    0.4395946930    0.6526319677    0.6830295881         -1.3692
O4         O    0.4406284679    0.7712506457    0.6695268167         -1.4051
Al5       Al    0.4306825208    0.7139846562    0.7539384556          1.4898
C6         C    0.4034010904    0.7982386160    0.6501444478           0.268
O7         O    0.2298136426    0.6665034262    0.6637183831         -1.4673
O8         O    0.2256656412    0.5614103117    0.8376537082         -1.4029
Al9       Al    0.2861790953    0.7151330670    0.7468026701          1.9012
O10        O    0.2129551479    0.5572296008    0.6865906353         -1.3936
O11        O    0.3464685997    0.5568125529    0.8264664550         -1.3921
O12        O    0.3323057572    0.5589747074    0.6731094469         -1.4487
O13        O    0.4402724794    0.6655004703    0.8343254170         -1.4308
O14        O    0.3330398961    0.6654653247    0.7525159458         -1.7921
O15        O    0.4406606250    0.7870743695    0.8214582427          -1.384
C16        C    0.3976659722    0.8013243862    0.8496564121          0.3231
C17        C    0.2008867934    0.5999830661    0.6513023160          0.2871
Al18      Al    0.2854859872    0.5685670375    0.7557945629          1.5556
O19        O    0.3464929701    0.7863343883    0.6773108057         -1.4303
C20        C    0.4051518965    0.5996266023    0.8518264467          0.3288
C21        C    0.1968420194    0.5989498713    0.8489377959          0.2776
O22        O    0.2131621653    0.6563380304    0.8122318216         -1.4835
O23        O    0.7747429248    0.3340564278    0.1692832688          -1.478
C24        C    0.6028427517    0.3963897261    0.3518812715          0.3155
O25        O    0.6533839653    0.4403169244    0.3167686804         -1.3692
O26        O    0.7714654838    0.4410630488    0.3299976550         -1.4051
Al27      Al    0.7146760777    0.4314548156    0.2457391582          1.4898
C28        C    0.7982021335    0.4035621384    0.3494031546           0.268
O29        O    0.6666935955    0.2295620496    0.3365259764         -1.4673
O30        O    0.5625629530    0.2261516423    0.1628394403         -1.4029
Al31      Al    0.7154915783    0.2863172511    0.2532014250          1.9012
O32        O    0.5579126733    0.2129333895    0.3139420982         -1.3936
O33        O    0.5582065297    0.3474398524    0.1737622084         -1.3921
O34        O    0.5598624073    0.3327426892    0.3271476051         -1.4487
O35        O    0.6666607462    0.4414340456    0.1654407777         -1.4308
O36        O    0.6661491983    0.3334982706    0.2474950965         -1.7921
O37        O    0.7876856410    0.4415275197    0.1780288559          -1.384
C38        C    0.8018705559    0.3984077252    0.1498957722          0.3231
C39        C    0.6003534836    0.2006156231    0.3491602794          0.2871
Al40      Al    0.5695670725    0.2859584576    0.2445465614          1.5556
O41        O    0.7863100162    0.3465222576    0.3223934446         -1.4303
C42        C    0.6010424163    0.4063580647    0.1481703962          0.3288
C43        C    0.5999181086    0.1971616401    0.1515349747          0.2776
O44        O    0.6569880099    0.2133169147    0.1880726741         -1.4835
C105       C    0.9993087240    0.4986404377    0.9993440974           0.337
C106       C    0.9269958434    0.4816645221    0.9667693393           0.337
C107       C    0.8609701973    0.4481420305    0.0171380916           0.337
C108       C    0.1314590542    0.5657524346    0.8987579138           0.337
C109       C    0.9395627309    0.4485617479    0.1326447665           0.337
C110       C    0.0055865416    0.4820745747    0.0822731912           0.337
C111       C    0.0653628604    0.5321917531    0.9490188967           0.337
C112       C    0.8672535211    0.4316051619    0.1000756543           0.337
H113       H    0.9223146819    0.4938897587    0.9053796445           0.337
H114       H    0.8074202650    0.4355555232    0.9930404921           0.337
H115       H    0.9442113774    0.4363085577    0.1940240524           0.337
H116       H    0.0591309677    0.4946320877    0.1063623217           0.337
C93        C    0.9995877507    0.5017626522    0.5002852915           0.337
C94        C    0.0559688969    0.4792469605    0.4903156305           0.337
C95        C    0.1224386264    0.5116914299    0.5401972893           0.337
C96        C    0.8665634009    0.4369072963    0.4006546955           0.337
C97        C    0.0761543931    0.5891692053    0.6100054171           0.337
C98        C    0.0096896703    0.5567325386    0.5601162487           0.337
C99        C    0.9330897094    0.4693182952    0.4504475360           0.337
C100       C    0.1325255259    0.5666379082    0.6000507751           0.337
H101       H    0.0485308868    0.4385806694    0.4460154414           0.337
H102       H    0.1641992473    0.4950441131    0.5328270788           0.337
H103       H    0.0836264465    0.6298475671    0.6542926697           0.337
H104       H    0.9679440695    0.5734032636    0.5674639304           0.337
C81        C    0.5018960582    0.9993847788    0.4995910831           0.337
C82        C    0.5631187231    0.0139681517    0.4463138011           0.337
C83        C    0.5958407774    0.0808728956    0.3963116218           0.337
C84        C    0.4364008010    0.8656575724    0.5997140351           0.337
C85        C    0.5061172042    0.1186025409    0.4528517825           0.337
C86        C    0.4733881979    0.0516924205    0.5028458660           0.337
C87        C    0.4691682431    0.9325080700    0.5496340626           0.337
C88        C    0.5673537729    0.1331966667    0.3995906921           0.337
H89        H    0.5842215478    0.9752514779    0.4438605845           0.337
H90        H    0.6411617357    0.0916846598    0.3568509375 0.33480000000000004
H91        H    0.4850225140    0.1573197840    0.4552674161           0.337
H92        H    0.4280463839    0.0408645269    0.5422822629           0.337
C69        C    0.4988310186    0.9992096685    0.0006449638           0.337
C70        C    0.5372197978    0.9566530586    0.9876682586           0.337
C71        C    0.5034910575    0.8907063207    0.9373430684           0.337
C72        C    0.5661973005    0.1311650464    0.1012037928           0.337
C73        C    0.3929882345    0.9098654344    0.9129821531           0.337
C74        C    0.4267120914    0.9758060946    0.9633162702           0.337
C75        C    0.5325409737    0.0651798017    0.0509356230           0.337
C76        C    0.4313867803    0.8673209799    0.8999875941           0.337
H77        H    0.5905912154    0.9739372995    0.0153107913           0.337
H78        H    0.5318900849    0.8591776952    0.9277296990           0.337
H79        H    0.3396152956    0.8925492792    0.8853483458           0.337
H80        H    0.3982984141    0.0073164869    0.9729564204           0.337
C57        C    0.5031214799    0.5030560209    0.0000575246           0.337
C58        C    0.4731124642    0.5474733165    0.0345847936           0.337
C59        C    0.4395140188    0.5805861119    0.9837320877           0.337
C60        C    0.5702810486    0.4367076936    0.1016344779           0.337
C61        C    0.4659411161    0.5248771604    0.8638327937           0.337
C62        C    0.4995489794    0.4917731063    0.9146843486           0.337
C63        C    0.5366992989    0.4699005891    0.0508772795           0.337
C64        C    0.4359132643    0.5692769735    0.8983623649           0.337
H65        H    0.4757692948    0.5558654499    0.0977730642           0.337
H66        H    0.4172995041    0.6134836042    0.0092707927           0.337
H67        H    0.4632905157    0.5165194628    0.8006475295           0.337
H68        H    0.5217917483    0.4589018377    0.8891421904           0.337
C45        C    0.4993618071    0.4992916744    0.4999423645           0.337
C46        C    0.4957411854    0.5022880069    0.4138419511           0.337
C47        C    0.5295896265    0.4686256138    0.3654323531           0.337
C48        C    0.4316485480    0.5665064389    0.5968997691           0.337
C49        C    0.5706852571    0.4289827916    0.4892143207           0.337
C50        C    0.5368459178    0.4626543742    0.5376238305           0.337
C51        C    0.4654986835    0.5329143136    0.5483889181           0.337
C52        C    0.5670464319    0.4319607451    0.4031140839           0.337
H53        H    0.4680260422    0.5294263582    0.3859208001           0.337
H54        H    0.5269301705    0.4708413325    0.3016846090           0.337
H55        H    0.5984209779    0.4018602757    0.5171040549           0.337
H56        H    0.5395326792    0.4604662239    0.6013713099           0.337
loop_
_geom_bond_atom_site_label_1
_geom_bond_atom_site_label_2
_geom_bond_distance
_geom_bond_site_symmetry_2
_ccdc_geom_bond_type
O1          C16 1.264       .   A
O1          Al9 1.910       .   S
C2          O12 1.307       .   A
C2           O3 1.213       .   A
C2          C48 1.629       .   S
O3          Al5 1.923       .   S
O4          Al5 1.887       .   S
O4           C6 1.257       .   A
Al5         O13 1.841       .   S
Al5         O14 1.849       .   S
Al5         O15 1.925       .   S
C6          O19 1.234       .   A
C6          C84 1.552       .   S
O7          Al9 1.883       .   S
O7          C17 1.279       .   A
O8         Al18 1.915       .   S
O8          C21 1.267       .   A
Al9         O14 1.814       .   S
Al9         O22 1.873       .   S
Al9         O19 1.904       .   S
O10        Al18 1.918       .   S
O10         C17 1.246       .   A
O11         C20 1.236       .   A
O11        Al18 1.930       .   S
O12        Al18 1.868       .   S
O13         C20 1.281       .   A
O14        Al18 1.829       .   S
O15         C16 1.232       .   A
C16         C76 1.541       .   S
C17        C100 1.583       .   S
C20         C64 1.410       .   S
C21         O22 1.287       .   A
C21        C108 1.524       .   S
O23         C38 1.264       .   A
O23        Al31 1.910       .   S
C24         O34 1.307       .   A
C24         O25 1.213       .   A
C24         C52 1.629       .   S
O25        Al27 1.923       .   S
O26        Al27 1.887       .   S
O26         C28 1.257       .   A
Al27        O35 1.841       .   S
Al27        O36 1.849       .   S
Al27        O37 1.925       .   S
C28         O41 1.234       .   A
C28         C96 1.583   1_655   S
O29        Al31 1.883       .   S
O29         C39 1.279       .   A
O30        Al40 1.915       .   S
O30         C43 1.267       .   A
Al31        O36 1.814       .   S
Al31        O44 1.873       .   S
Al31        O41 1.904       .   S
O32        Al40 1.918       .   S
O32         C39 1.246       .   A
O33         C42 1.236       .   A
O33        Al40 1.930       .   S
O34        Al40 1.868       .   S
O35         C42 1.281       .   A
O36        Al40 1.829       .   S
O37         C38 1.232       .   A
C38        C112 1.524   1_654   S
C39         C88 1.552   1_545   S
C42         C60 1.410   1_554   S
C43         O44 1.287       .   A
C43         C72 1.541   1_544   S
C105       C106 1.540       .   A
C105       C110 1.540       .   A
C105       C111 1.540       .   S
C106       C107 1.540       .   A
C106       H113 1.140       .   S
C107       C112 1.540       .   A
C107       H114 1.140       .   S
C111       C108 1.540       .   T
C112       C109 1.540       .   A
C109       C110 1.540       .   A
C109       H115 1.140       .   S
C110       H116 1.140       .   S
C93         C94 1.540       .   A
C93         C98 1.540       .   A
C93         C99 1.540       .   S
C94         C95 1.540       .   A
C94        H101 1.140       .   S
C95        C100 1.540       .   A
C95        H102 1.140       .   S
C99         C96 1.540       .   T
C100        C97 1.540       .   A
C97         C98 1.540       .   A
C97        H103 1.140       .   S
C98        H104 1.140       .   S
C81         C82 1.540       .   A
C81         C86 1.540       .   A
C81         C87 1.540       .   S
C82         C83 1.540       .   A
C82         H89 1.140       .   S
C83         C88 1.540       .   A
C83         H90 1.140       .   S
C87         C84 1.540       .   T
C88         C85 1.540       .   A
C85         C86 1.540       .   A
C85         H91 1.140       .   S
C86         H92 1.140       .   S
C69         C70 1.540       .   A
C69         C74 1.540       .   A
C69         C75 1.540       .   S
C70         C71 1.540       .   A
C70         H77 1.140       .   S
C71         C76 1.540       .   A
C71         H78 1.140       .   S
C75         C72 1.540       .   T
C76         C73 1.540       .   A
C73         C74 1.540       .   A
C73         H79 1.140       .   S
C74         H80 1.140       .   S
C57         C58 1.540       .   A
C57         C62 1.540       .   A
C57         C63 1.540       .   S
C58         C59 1.540       .   A
C58         H65 1.140       .   S
C59         C64 1.540       .   A
C59         H66 1.140       .   S
C63         C60 1.540       .   T
C64         C61 1.540       .   A
C61         C62 1.540       .   A
C61         H67 1.140       .   S
C62         H68 1.140       .   S
C45         C46 1.540       .   A
C45         C50 1.540       .   A
C45         C51 1.540       .   S
C46         C47 1.540       .   A
C46         H53 1.140       .   S
C47         C52 1.540       .   A
C47         H54 1.140       .   S
C51         C48 1.540       .   T
C52         C49 1.540       .   A
C49         C50 1.540       .   A
C49         H55 1.140       .   S
C50         H56 1.140       .   S
