data_acs_v1-6c_Al_1_1-1B_2F_Ch
_audit_creation_date              2021-04-19
_audit_creation_method            'tobacco_3.0'
_symmetry_space_group_name_H-M    'P1'
_symmetry_Int_Tables_number       1
_symmetry_cell_setting            triclinic
loop_
_symmetry_equiv_pos_as_xyz
  x,y,z
_cell_length_a                    17.018653078642718
_cell_length_b                    17.018652789968918
_cell_length_c                    13.495900633554514
_cell_angle_alpha                 90.00000105443098
_cell_angle_beta                  89.99999985114167
_cell_angle_gamma                 120.00086804851865
loop_
_atom_site_label
_atom_site_type_symbol
_atom_site_fract_x
_atom_site_fract_y
_atom_site_fract_z
_atom_site_charge
O1         O    0.1947354337    0.6627712146    0.8428948750          0.5531
O2         O    0.4679327688    0.8052613517    0.8428948762          0.5531
O3         O    0.3372250138    0.5320742214    0.8428948733          0.5531
O4         O    0.1947326982    0.5320655328    0.8428948735          0.5531
O5         O    0.4679313924    0.6627785659    0.8428948746          0.5531
O6         O    0.3372291256    0.8052626889    0.8428948764          0.5531
C7         C    0.1656128601    0.5828578642    0.8757641144          0.5531
C8         C    0.4171421374    0.8343832272    0.8757641168          0.5531
C9         C    0.4171450039    0.5828589121    0.8757641140          0.5531
O10        O    0.1947354331    0.6627712128    0.6571051254          0.5531
O11        O    0.4679327681    0.8052613500    0.6571051265          0.5531
O12        O    0.3372250131    0.5320742196    0.6571051237          0.5531
O13        O    0.1947326976    0.5320655311    0.6571051239          0.5531
O14        O    0.4679313917    0.6627785642    0.6571051249          0.5531
O15        O    0.3372291250    0.8052626872    0.6571051267          0.5531
Al16      Al    0.2744622747    0.7255483113    0.7500074104             1.0
Al17      Al    0.4509944393    0.7255500472    0.7500074101             1.0
Al18      Al    0.2744550381    0.5490133934    0.7500074084             1.0
O19        O    0.3333061789    0.6667016556    0.7500074097          0.5531
C20        C    0.1656128592    0.5828578619    0.6242358843          0.5531
C21        C    0.4171421365    0.8343832248    0.6242358867          0.5531
C22        C    0.4171450030    0.5828589098    0.6242358839          0.5531
O23        O    0.8051989165    0.3372944355    0.3428948784          0.5531
O24        O    0.5320015815    0.1948042984    0.3428948772          0.5531
O25        O    0.6627093365    0.4679914288    0.3428948801          0.5531
O26        O    0.8052016520    0.4680001173    0.3428948798          0.5531
O27        O    0.5320029578    0.3372870842    0.3428948788          0.5531
O28        O    0.6627052246    0.1948029612    0.3428948770          0.5531
C29        C    0.8343214904    0.4172077865    0.3757641194          0.5531
C30        C    0.5827922131    0.1656824236    0.3757641170          0.5531
C31        C    0.5827893466    0.4172067386    0.3757641198          0.5531
O32        O    0.8051989158    0.3372944338    0.1571051287          0.5531
O33        O    0.5320015808    0.1948042967    0.1571051275          0.5531
O34        O    0.6627093358    0.4679914270    0.1571051304          0.5531
O35        O    0.8052016513    0.4680001156    0.1571051302          0.5531
O36        O    0.5320029572    0.3372870825    0.1571051292          0.5531
O37        O    0.6627052239    0.1948029595    0.1571051273          0.5531
Al38      Al    0.7254720749    0.2745173371    0.2500074126             1.0
Al39      Al    0.5489399103    0.2745156012    0.2500074129             1.0
Al40      Al    0.7254793115    0.4510522550    0.2500074146             1.0
O41        O    0.6666281706    0.3333639928    0.2500074134          0.5531
C42        C    0.8343214895    0.4172077841    0.1242358893          0.5531
C43        C    0.5827922122    0.1656824212    0.1242358869          0.5531
C44        C    0.5827893457    0.4172067363    0.1242358897          0.5531
C95        C    0.0035977119    0.5470733440    0.9141348240          -0.657
C96        C    0.0794828747    0.5397917290    0.9403624476         -0.5375
C97        C    0.0737051010    0.4919156239    0.0273863207         -0.1489
C98        C    0.9963299887    0.4529810051    0.0858570705          -0.657
C99        C    0.9204514748    0.4602739194    0.0596375562         -0.5376
C100       C    0.9262292486    0.5081500244    0.9726136830         -0.1488
F101       F    0.8562236002    0.5179039750    0.9428302151         -0.6428
H102       H    0.0047002522    0.5833191269    0.8477041844         -0.2652
H103       H    0.9952340974    0.4167465215    0.1522958193         -0.2651
F104       F    0.1437107494    0.4821616734    0.0571697886         -0.6427
C85        C    0.0379963922    0.4483642999    0.5311667475          -0.657
C86        C    0.0794828762    0.5397917288    0.5596375552         -0.5375
C87        C    0.0394895529    0.5900991631    0.5270209120         -0.1489
C88        C    0.9619292964    0.5516958226    0.4688445647          -0.657
C89        C    0.9204514734    0.4602739196    0.4403624486         -0.5376
C90        C    0.9604447967    0.4099664853    0.4729790917         -0.1488
F91        F    0.9244830615    0.3220294131    0.4486282526         -0.6428
H92        H    0.0662459614    0.4067100807    0.5544300359         -0.2652
H93        H    0.9336883882    0.5933555677    0.4455699678         -0.2651
F94        F    0.0754512881    0.6780362353    0.5513717512         -0.6427
C75        C    0.5410192894    0.0012754873    0.4103353490          -0.657
C76        C    0.5397254409    0.0795491273    0.4403634056         -0.5375
C77        C    0.4978173384    0.0761510711    0.5311737709         -0.1489
C78        C    0.4589266734    0.9987926533    0.5896710811          -0.657
C79        C    0.4602089087    0.9205165211    0.5596365981         -0.5376
C80        C    0.5021170111    0.9239145773    0.4688262328         -0.1488
F81        F    0.5059494639    0.8515469412    0.4352844787         -0.6428
H82        H    0.5725251109    0.0004879481    0.3408973078         -0.2652
H83        H    0.4274092387    0.9995777003    0.6591026960         -0.2651
F84        F    0.4939848857    0.1485187072    0.5647155251         -0.6427
C65        C    0.4561953374    0.9977469769    0.9119941329          -0.657
C66        C    0.4602089080    0.9205165200    0.9403634039         -0.5375
C67        C    0.5048222176    0.9249520449    0.0295240738         -0.1489
C68        C    0.5437274861    0.0023159216    0.0880127070          -0.657
C69        C    0.5397254415    0.0795491284    0.0596365998         -0.5376
C70        C    0.4951121320    0.0751136035    0.9704759299         -0.1488
F71        F    0.4885879920    0.1464487508    0.9385759559         -0.6428
H72        H    0.4225431876    0.9977114453    0.8438648697         -0.2652
H73        H    0.5773911619    0.0023542031    0.1561351340         -0.2651
F74        F    0.5113463576    0.8536168976    0.0614240478         -0.6427
C55        C    0.4065237313    0.4548093982    0.9850376793          -0.657
C56        C    0.4602104214    0.5397914579    0.9403636085         -0.5375
C57        C    0.5542354505    0.5836871106    0.9568628364         -0.1489
C58        C    0.5934110436    0.5452483730    0.0149515853          -0.657
C59        C    0.5397239282    0.4602741905    0.0596363952         -0.5376
C60        C    0.4456988991    0.4163785378    0.0431371673         -0.1488
F61        F    0.3900158596    0.3348199456    0.0835245404         -0.6428
H62        H    0.3336656957    0.4182428048    0.9745617616         -0.2652
H63        H    0.6662686538    0.5818228436    0.0254382421         -0.2651
F64        F    0.6099184899    0.6652457028    0.9164754633         -0.6427
C45        C    0.5073757419    0.5004523554    0.6027538782          -0.657
C46        C    0.4602104196    0.5397914581    0.5596363943         -0.5375
C47        C    0.4539179065    0.5382860398    0.4558108667         -0.1489
C48        C    0.4925483206    0.4996005677    0.3972475395          -0.657
C49        C    0.5397239299    0.4602741903    0.4403636094         -0.5376
C50        C    0.5460164431    0.4617796086    0.5441891370         -0.1488
F51        F    0.5901443214    0.4253928015    0.5906870471          -0.645
H52        H    0.5141118985    0.4999079917    0.6825164442         -0.2652
H53        H    0.4858224511    0.5001576567    0.3174835595         -0.2651
F54        F    0.4097900282    0.5746728468    0.4093129566         -0.6427
loop_
_geom_bond_atom_site_label_1
_geom_bond_atom_site_label_2
_geom_bond_distance
_geom_bond_site_symmetry_2
_ccdc_geom_bond_type
O1         Al16 1.762       .   S
O1           C7 1.272       .   A
O2         Al17 1.762       .   S
O2           C8 1.272       .   A
O3         Al18 1.762       .   S
O3           C9 1.272       .   A
O4         Al18 1.762       .   S
O4           C7 1.272       .   A
O5         Al17 1.762       .   S
O5           C9 1.272       .   A
O6         Al16 1.762       .   S
O6           C8 1.272       .   A
C7          C96 1.540       .   S
C8          C66 1.540       .   S
C9          C56 1.540       .   S
O10        Al16 1.762       .   S
O10         C20 1.272       .   A
O11        Al17 1.762       .   S
O11         C21 1.272       .   A
O12        Al18 1.762       .   S
O12         C22 1.272       .   A
O13        Al18 1.762       .   S
O13         C20 1.272       .   A
O14        Al17 1.762       .   S
O14         C22 1.272       .   A
O15        Al16 1.762       .   S
O15         C21 1.272       .   A
Al16        O19 1.735       .   S
Al17        O19 1.735       .   S
Al18        O19 1.735       .   S
C20         C86 1.540       .   S
C21         C79 1.540       .   S
C22         C46 1.540       .   S
O23        Al38 1.762       .   S
O23         C29 1.272       .   A
O24        Al39 1.762       .   S
O24         C30 1.272       .   A
O25        Al40 1.762       .   S
O25         C31 1.272       .   A
O26        Al40 1.762       .   S
O26         C29 1.272       .   A
O27        Al39 1.762       .   S
O27         C31 1.272       .   A
O28        Al38 1.762       .   S
O28         C30 1.272       .   A
C29         C89 1.540   1_655   S
C30         C76 1.540   1_545   S
C31         C49 1.540       .   S
O32        Al38 1.762       .   S
O32         C42 1.272       .   A
O33        Al39 1.762       .   S
O33         C43 1.272       .   A
O34        Al40 1.762       .   S
O34         C44 1.272       .   A
O35        Al40 1.762       .   S
O35         C42 1.272       .   A
O36        Al39 1.762       .   S
O36         C44 1.272       .   A
O37        Al38 1.762       .   S
O37         C43 1.272       .   A
Al38        O41 1.735       .   S
Al39        O41 1.735       .   S
Al40        O41 1.735       .   S
C42         C99 1.540   1_654   S
C43         C69 1.540   1_544   S
C44         C59 1.540   1_554   S
C95         C96 1.403       .   A
C95        C100 1.387       .   A
C95        H102 1.083       .   S
C96         C97 1.404       .   A
C97         C98 1.387       .   A
C97        F104 1.344       .   S
C98         C99 1.403       .   A
C98        H103 1.083       .   S
C99        C100 1.404       .   A
C100       F101 1.344       .   S
C85         C86 1.403       .   A
C85         C90 1.387       .   A
C85         H92 1.083       .   S
C86         C87 1.404       .   A
C87         C88 1.387       .   A
C87         F94 1.344       .   S
C88         C89 1.403       .   A
C88         H93 1.083       .   S
C89         C90 1.404       .   A
C90         F91 1.344       .   S
C75         C76 1.403       .   A
C75         C80 1.387       .   A
C75         H82 1.083       .   S
C76         C77 1.404       .   A
C77         C78 1.387       .   A
C77         F84 1.344       .   S
C78         C79 1.403       .   A
C78         H83 1.083       .   S
C79         C80 1.404       .   A
C80         F81 1.344       .   S
C65         C66 1.403       .   A
C65         C70 1.387       .   A
C65         H72 1.083       .   S
C66         C67 1.404       .   A
C67         C68 1.387       .   A
C67         F74 1.344       .   S
C68         C69 1.403       .   A
C68         H73 1.083       .   S
C69         C70 1.404       .   A
C70         F71 1.344       .   S
C55         C56 1.403       .   A
C55         C60 1.387       .   A
C55         H62 1.083       .   S
C56         C57 1.404       .   A
C57         C58 1.387       .   A
C57         F64 1.344       .   S
C58         C59 1.403       .   A
C58         H63 1.083       .   S
C59         C60 1.404       .   A
C60         F61 1.344       .   S
C45         C46 1.403       .   A
C45         C50 1.387       .   A
C45         H52 1.083       .   S
C46         C47 1.404       .   A
C47         C48 1.387       .   A
C47         F54 1.344       .   S
C48         C49 1.403       .   A
C48         H53 1.083       .   S
C49         C50 1.404       .   A
C50         F51 1.344       .   S
