data_acs_v1-6c_Al_1_1-3B_4H_Ch
_audit_creation_date              2021-04-27
_audit_creation_method            'tobacco_3.0'
_symmetry_space_group_name_H-M    'P1'
_symmetry_Int_Tables_number       1
_symmetry_cell_setting            triclinic
loop_
_symmetry_equiv_pos_as_xyz
  x,y,z
_cell_length_a                    30.52485019170161
_cell_length_b                    30.5248503531468
_cell_length_c                    24.206421077959888
_cell_angle_alpha                 90.00000033990923
_cell_angle_beta                  89.99999985302925
_cell_angle_gamma                 120.00070769969645
loop_
_atom_site_label
_atom_site_type_symbol
_atom_site_fract_x
_atom_site_fract_y
_atom_site_fract_z
_atom_site_charge
O1         O    0.3354903070    0.7439544418    0.6982079573          0.7946
O2         O    0.2560474696    0.5916377903    0.6982079569          0.7946
O3         O    0.4083584404    0.6645115502    0.6982079569          0.7946
O4         O    0.4083631565    0.7439558489    0.6982079572          0.7946
O5         O    0.3354864539    0.5916384290    0.6982079568          0.7946
O6         O    0.2560466066    0.6645095044    0.6982079572          0.7946
C7         C    0.3800446835    0.7601911922    0.6798822412          0.7946
C8         C    0.2398109911    0.6199553163    0.6798822410          0.7946
C9         C    0.3800443253    0.6199534910    0.6798822407          0.7946
O10        O    0.3354903071    0.7439544421    0.8017920432          0.7946
O11        O    0.2560474696    0.5916377906    0.8017920428          0.7946
O12        O    0.4083584405    0.6645115504    0.8017920428          0.7946
O13        O    0.4083631566    0.7439558492    0.8017920431          0.7946
O14        O    0.3354864540    0.5916384293    0.8017920427          0.7946
O15        O    0.2560466066    0.6645095046    0.8017920431          0.7946
Al16      Al    0.3004900182    0.6995040806    0.7499958690             1.0
Al17      Al    0.3004892090    0.6010814115    0.7499958687             1.0
Al18      Al    0.3989142208    0.6995079558    0.7499958689             1.0
O19        O    0.3332990769    0.6666965550    0.7499958689          0.7946
C20        C    0.3800446835    0.7601911926    0.8201177593          0.7946
C21        C    0.2398109911    0.6199553167    0.8201177590          0.7946
C22        C    0.3800443254    0.6199534913    0.8201177588          0.7946
O23        O    0.6644434487    0.2561117954    0.1982079551          0.7946
O24        O    0.7438862861    0.4084284468    0.1982079555          0.7946
O25        O    0.5915753153    0.3355546870    0.1982079555          0.7946
O26        O    0.5915705992    0.2561103883    0.1982079552          0.7946
O27        O    0.6644473018    0.4084278081    0.1982079556          0.7946
O28        O    0.7438871491    0.3355567328    0.1982079552          0.7946
C29        C    0.6198890722    0.2398750449    0.1798822390          0.7946
C30        C    0.7601227646    0.3801109208    0.1798822393          0.7946
C31        C    0.6198894304    0.3801127461    0.1798822395          0.7946
O32        O    0.6644434487    0.2561117957    0.3017920409          0.7946
O33        O    0.7438862861    0.4084284471    0.3017920414          0.7946
O34        O    0.5915753153    0.3355546873    0.3017920413          0.7946
O35        O    0.5915705992    0.2561103886    0.3017920411          0.7946
O36        O    0.6644473018    0.4084278084    0.3017920415          0.7946
O37        O    0.7438871491    0.3355567331    0.3017920411          0.7946
Al38      Al    0.6994437376    0.3005621569    0.2499958670             1.0
Al39      Al    0.6994445467    0.3989848260    0.2499958673             1.0
Al40      Al    0.6010195350    0.3005582817    0.2499958671             1.0
O41        O    0.6666346788    0.3333696824    0.2499958671          0.7946
C42        C    0.6198890722    0.2398750452    0.3201177570          0.7946
C43        C    0.7601227646    0.3801109212    0.3201177573          0.7946
C44        C    0.6198894304    0.3801127465    0.3201177575          0.7946
C195       C    0.1917890826    0.5959443341    0.8561340213         -0.2197
C196       C    0.1929985451    0.6165356523    0.9144928318         -0.2969
C197       C    0.1441748732    0.5944897230    0.9490695611         -0.3267
C198       C    0.0941202923    0.5519124607    0.9251956609         -0.1122
C199       C    0.0926670872    0.5319813999    0.8663934234         -0.3145
C200       C    0.1415667924    0.5538923055    0.8319077663          -0.307
C201       C    0.0457080179    0.5289195412    0.9605093635         -0.1863
C202       C    0.0477046388    0.5480352264    0.0198215112         -0.2974
C203       C    0.9997188742    0.5240688025    0.0558381508         -0.2974
C204       C    0.9497654955    0.4809257325    0.0325016281         -0.1863
C205       C    0.9475404938    0.4623829391    0.9728573460         -0.2976
C206       C    0.9955464642    0.4864129774    0.9368143634         -0.2975
C207       C    0.9022284292    0.4559239223    0.0691405282         -0.1124
C208       C    0.9046246117    0.4748245958    0.1286185304         -0.3265
C209       C    0.8575473906    0.4490118775    0.1659543219         -0.2972
C210       C    0.8081446732    0.4041219034    0.1438659770         -0.2195
C211       C    0.8055420677    0.3856492778    0.0840908704         -0.3071
C212       C    0.8525683283    0.4116800824    0.0466452479         -0.3144
H214       H    0.2301137353    0.6479107477    0.9322445890         -0.0895
H215       H    0.1451108543    0.6094600613    0.9924588008         -0.1175
H216       H    0.0554851176    0.5007581140    0.8485361401         -0.1181
H217       H    0.1406227752    0.5389131138    0.7885059225         -0.0906
H218       H    0.0848053855    0.5798172539    0.0371149650         -0.1215
H219       H    0.0012295059    0.5379641752    0.0999030969         -0.1215
H220       H    0.9104251190    0.4306618179    0.9555117351         -0.1208
H221       H    0.9940231557    0.4725599837    0.8927293379         -0.1208
H222       H    0.9412944115    0.5078335725    0.1450564610         -0.1175
H223       H    0.8593462094    0.4629216940    0.2100092095         -0.0895
H225       H    0.7688764014    0.3526862088    0.0676013886         -0.0907
H226       H    0.8507246336    0.3980157325    0.0024610557         -0.1182
C165       C    0.1917890821    0.5959443336    0.6438659780         -0.2197
C166       C    0.1454538423    0.6000725073    0.6611111709         -0.2969
C167       C    0.0986646953    0.5787310662    0.6232992079         -0.3267
C168       C    0.0982898365    0.5533562346    0.5681740671         -0.1122
C169       C    0.1450129287    0.5501070186    0.5503679600         -0.3145
C170       C    0.1917302951    0.5712622529    0.5883238996          -0.307
C171       C    0.0508775318    0.5307095714    0.5312702461         -0.1863
C172       C    0.0037801767    0.5328256503    0.5500257051         -0.2974
C173       C    0.9557746026    0.5088523671    0.5140405658         -0.2974
C174       C    0.9549018692    0.4827042875    0.4593306798         -0.1863
C175       C    0.0022861621    0.4813395380    0.4400879127         -0.2976
C176       C    0.0503283696    0.5053821238    0.4760732722         -0.2975
C177       C    0.9063699012    0.4573579761    0.4242738391         -0.1124
C178       C    0.8592242722    0.4591039728    0.4435755769         -0.3265
C179       C    0.8101353147    0.4325946574    0.4094387815         -0.2972
C180       C    0.8081446737    0.4041219039    0.3561340203         -0.2195
C181       C    0.8555353560    0.4029602863    0.3364114645         -0.3071
C182       C    0.9047303023    0.4297420343    0.3704085152         -0.3144
H184       H    0.1456645475    0.6186688105    0.7020436977         -0.0895
H185       H    0.0641817978    0.5814370284    0.6362318901         -0.1175
H186       H    0.1448911965    0.5317164567    0.5092932869         -0.1181
H187       H    0.2262202912    0.5685526781    0.5753797546         -0.0906
H188       H    0.0044272468    0.5519849855    0.5906996747         -0.1215
H189       H    0.9207527772    0.5100977685    0.5280683174         -0.1215
H190       H    0.0016867506    0.4622626768    0.3993670538         -0.1208
H191       H    0.0853688890    0.5041899641    0.4620157154         -0.1208
H192       H    0.8606253502    0.4799005676    0.4832207941         -0.1175
H193       H    0.7752104470    0.4337882862    0.4237806782         -0.0895
H195       H    0.8541851087    0.3822257689    0.2967435420         -0.0907
H196       H    0.9397830249    0.4288536829    0.3559212525         -0.1182
C135       C    0.4040550721    0.8082114763    0.6438668685         -0.2197
C136       C    0.4266032621    0.8607216670    0.6709302899         -0.2969
C137       C    0.4533348583    0.9087583077    0.6351019692         -0.3267
C138       C    0.4575961294    0.9042456724    0.5722057880         -0.1122
C139       C    0.4359388690    0.8517573085    0.5452328834         -0.3145
C140       C    0.4089995514    0.8037012652    0.5810601901          -0.307
C141       C    0.4829943017    0.9522946990    0.5363144196         -0.1863
C142       C    0.5033131253    0.0045852269    0.5633269811         -0.2974
C143       C    0.5273344921    0.0526017564    0.5273592622         -0.2974
C144       C    0.5309446229    0.0482572899    0.4643540692         -0.1863
C145       C    0.5114177622    0.9960370528    0.4374222289         -0.2976
C146       C    0.4874403818    0.9480101134    0.4734318656         -0.2975
C147       C    0.5535006380    0.0961432083    0.4282699455         -0.1124
C148       C    0.5732180230    0.1482571317    0.4554712053         -0.3265
C149       C    0.5945303697    0.1961429637    0.4194213183         -0.2972
C150       C    0.5958786837    0.1918547611    0.3561331298         -0.2195
C151       C    0.5767856567    0.1397755729    0.3289559440         -0.3071
C152       C    0.5557404706    0.0919086529    0.3650646906         -0.3144
H154       H    0.4232461290    0.8640386221    0.7174717320         -0.0895
H155       H    0.4697173011    0.9476597248    0.6550601244         -0.1175
H156       H    0.4395111554    0.8484488055    0.4987042108         -0.1181
H157       H    0.3926153258    0.7647915004    0.5610885863         -0.0906
H158       H    0.5003640504    0.0076905974    0.6099672903         -0.1215
H159       H    0.5420908247    0.0913276248    0.5472763967         -0.1215
H160       H    0.5144408358    0.9929202427    0.3907926225         -0.1208
H161       H    0.4727387289    0.9092905318    0.4535246478         -0.1208
H162       H    0.5719016318    0.1513653941    0.5022863090         -0.1175
H163       H    0.6090198809    0.2346981298    0.4395353360         -0.0895
H165       H    0.5781424687    0.1366402052    0.2821558609         -0.0907
H166       H    0.5415392217    0.0533630198    0.3450237673         -0.1182
C105       C    0.4040550711    0.8082114747    0.8561331301         -0.2197
C106       C    0.3867453985    0.8058529878    0.9163189317         -0.2969
C107       C    0.4129827152    0.8532091991    0.9532292353         -0.3267
C108       C    0.4566146765    0.9028945956    0.9299426189         -0.1122
C109       C    0.4746292924    0.9050188789    0.8700734262         -0.3145
C110       C    0.4482209495    0.8576937800    0.8330838104          -0.307
C111       C    0.4817354984    0.9505618194    0.9664411102         -0.1863
C112       C    0.4626189970    0.9485653387    0.0257528330         -0.2974
C113       C    0.4866113555    0.9965419353    0.0617840515         -0.2974
C114       C    0.5296829117    0.0465204075    0.0384078266         -0.1863
C115       C    0.5494062048    0.0483322707    0.9794207241         -0.2976
C116       C    0.5254303433    0.0003074221    0.9434077622         -0.2975
C117       C    0.5525327318    0.0948107805    0.0738488090         -0.1124
C118       C    0.5328512059    0.0926878231    0.1328921229         -0.3265
C119       C    0.5546076630    0.1411850213    0.1679698487         -0.2972
C120       C    0.5958786846    0.1918547627    0.1438668682         -0.2195
C121       C    0.6160706222    0.1938555956    0.0850489100         -0.3071
C122       C    0.5945015014    0.1452674227    0.0500870605         -0.3144
H124       H    0.3542917034    0.7691153644    0.9334701278         -0.0895
H125       H    0.3999368578    0.8515993643    0.9976898963         -0.1175
H126       H    0.5072575179    0.9417090326    0.8529983844         -0.1181
H127       H    0.4612766691    0.8593112978    0.7886111069         -0.0906
H128       H    0.4305390211    0.9115688595    0.0428803301         -0.1215
H129       H    0.4722559015    0.9951922668    0.1055928825         -0.1215
H130       H    0.5815479240    0.0853004395    0.9623093513         -0.1208
H131       H    0.5398244988    0.0016413816    0.8996239910         -0.1208
H132       H    0.5020720205    0.0552373488    0.1505713427         -0.1175
H133       H    0.5399685175    0.1396414274    0.2116187248         -0.0895
H135       H    0.6468860290    0.2312731839    0.0673638619         -0.0907
H136       H    0.6093411628    0.1466997573    0.0065571677         -0.1182
C75        C    0.5958780021    0.4041237379    0.1438654151         -0.2197
C76        C    0.5419230484    0.3933909456    0.1561609408         -0.2969
C77        C    0.5192058815    0.4198971471    0.1222205749         -0.3267
C78        C    0.5505258242    0.4572265304    0.0760554893         -0.1122
C79        C    0.6048755308    0.4687560770    0.0644550361         -0.3145
C80        C    0.6275078198    0.4420590736    0.0982568014          -0.307
C81        C    0.5271426027    0.4824878187    0.0411118780         -0.1863
C82        C    0.4723041740    0.4697314265    0.0518928174         -0.2974
C83        C    0.4482849457    0.4937290243    0.0159263876         -0.2974
C84        C    0.4791405373    0.5304323735    0.9691277631         -0.1863
C85        C    0.5342765649    0.5438788366    0.9589398805         -0.2976
C86        C    0.5583127430    0.5199057972    0.9949768816         -0.2975
C87        C    0.4545584442    0.5531367559    0.9320912167         -0.1124
C88        C    0.3995257078    0.5397741502    0.9426866763         -0.3265
C89        C    0.3742984132    0.5612747063    0.9047961792         -0.2972
C90        C    0.4040557536    0.5959424995    0.8561345832         -0.2195
C91        C    0.4593600994    0.6098763862    0.8459845010         -0.3071
C92        C    0.4846805155    0.5885943980    0.8841032701         -0.3144
H94        H    0.5186668169    0.3655815716    0.1901881741         -0.0895
H95        H    0.4791059805    0.4116846347    0.1310264490         -0.1175
H96        H    0.6282272982    0.4967613093    0.0305866652         -0.1181
H97        H    0.6676207672    0.4502796158    0.0894427750         -0.0906
H98        H    0.4494380993    0.4423366587    0.0863942545         -0.1215
H99        H    0.4075581810    0.4840478989    0.0236318433         -0.1215
H100       H    0.5571880448    0.5713428778    0.9245052924         -0.1208
H101       H    0.5990568685    0.5296318722    0.9873152176         -0.1208
H102       H    0.3774183725    0.5138481547    0.9784874065         -0.1175
H103       H    0.3335380312    0.5513004221    0.9125572441         -0.0895
H105       H    0.4815104773    0.6358429994    0.8102380375         -0.0907
H106       H    0.5255490172    0.5988035440    0.8766016869         -0.1182
C45        C    0.4040557533    0.5959424996    0.6438654166         -0.2197
C46        C    0.4580307400    0.6067180655    0.6561247809         -0.2969
C47        C    0.4807506657    0.5802132919    0.6221865307         -0.3267
C48        C    0.4494135332    0.5428425868    0.5760598188         -0.1122
C49        C    0.3950447035    0.5312707581    0.5644961923         -0.3145
C50        C    0.3724094540    0.5579662286    0.5982956879          -0.307
C51        C    0.4727981673    0.5175820513    0.5411172560         -0.1863
C52        C    0.5276544524    0.5303800614    0.5518604107         -0.2974
C53        C    0.5516737096    0.5063824998    0.5158939686         -0.2974
C54        C    0.5208002060    0.4696374894    0.4691331088         -0.1863
C55        C    0.4656471193    0.4561498590    0.4589835625         -0.2976
C56        C    0.4416109732    0.4801229086    0.4950205990         -0.2975
C57        C    0.5453808645    0.4469323316    0.4320955138         -0.1124
C58        C    0.6004309691    0.4603363481    0.4426527414         -0.3265
C59        C    0.6256556093    0.4388344462    0.4047601631         -0.2972
C60        C    0.5958780024    0.4041237379    0.3561345817         -0.2195
C61        C    0.5405569077    0.3901487636    0.3460232021         -0.3071
C62        C    0.5152394273    0.4114322696    0.3841442265         -0.3144
H64        H    0.4812994946    0.6345579133    0.6901234696         -0.0895
H65        H    0.5208650563    0.5884572776    0.6309653978         -0.1175
H66        H    0.3716806288    0.5032351654    0.5306565286         -0.1181
H67        H    0.3322820123    0.5497142011    0.5895086804         -0.0906
H68        H    0.5505335379    0.5578055080    0.5863337527         -0.1215
H69        H    0.5924133783    0.5160942487    0.5235712471         -0.1215
H70        H    0.4427227083    0.4286551784    0.4245771335         -0.1208
H71        H    0.4008540000    0.4703662443    0.4873871470         -0.1208
H72        H    0.6225529942    0.4862939193    0.4784266205         -0.1175
H73        H    0.6664287402    0.4488393135    0.4124928682         -0.0875
H75        H    0.5183918915    0.3641505969    0.3103036365         -0.0907
H76        H    0.4743584862    0.4011927294    0.3766711946         -0.1182
loop_
_geom_bond_atom_site_label_1
_geom_bond_atom_site_label_2
_geom_bond_distance
_geom_bond_site_symmetry_2
_ccdc_geom_bond_type
O1         Al16 1.762       .   S
O1           C7 1.272       .   A
O2         Al17 1.762       .   S
O2           C8 1.272       .   A
O3         Al18 1.762       .   S
O3           C9 1.272       .   A
O4         Al18 1.762       .   S
O4           C7 1.272       .   A
O5         Al17 1.762       .   S
O5           C9 1.272       .   A
O6         Al16 1.762       .   S
O6           C8 1.272       .   A
C7         C135 1.540       .   S
C8         C165 1.540       .   S
C9          C45 1.540       .   S
O10        Al16 1.762       .   S
O10         C20 1.272       .   A
O11        Al17 1.762       .   S
O11         C21 1.272       .   A
O12        Al18 1.762       .   S
O12         C22 1.272       .   A
O13        Al18 1.762       .   S
O13         C20 1.272       .   A
O14        Al17 1.762       .   S
O14         C22 1.272       .   A
O15        Al16 1.762       .   S
O15         C21 1.272       .   A
Al16        O19 1.735       .   S
Al17        O19 1.735       .   S
Al18        O19 1.735       .   S
C20        C105 1.540       .   S
C21        C195 1.540       .   S
C22         C90 1.540       .   S
O23        Al38 1.762       .   S
O23         C29 1.272       .   A
O24        Al39 1.762       .   S
O24         C30 1.272       .   A
O25        Al40 1.762       .   S
O25         C31 1.272       .   A
O26        Al40 1.762       .   S
O26         C29 1.272       .   A
O27        Al39 1.762       .   S
O27         C31 1.272       .   A
O28        Al38 1.762       .   S
O28         C30 1.272       .   A
C29        C120 1.540   1_544   S
C30        C210 1.540   1_654   S
C31         C75 1.540   1_554   S
O32        Al38 1.762       .   S
O32         C42 1.272       .   A
O33        Al39 1.762       .   S
O33         C43 1.272       .   A
O34        Al40 1.762       .   S
O34         C44 1.272       .   A
O35        Al40 1.762       .   S
O35         C42 1.272       .   A
O36        Al39 1.762       .   S
O36         C44 1.272       .   A
O37        Al38 1.762       .   S
O37         C43 1.272       .   A
Al38        O41 1.735       .   S
Al39        O41 1.735       .   S
Al40        O41 1.735       .   S
C42        C150 1.540   1_545   S
C43        C180 1.540   1_655   S
C44         C60 1.540       .   S
C196       C195 1.539       .   A
C195       C200 1.540       .   A
H214       C196 1.140       .   S
C197       C196 1.540       .   A
H215       C197 1.140       .   S
C197       C198 1.540       .   A
C201       C198 1.539       .   S
C199       C198 1.540       .   A
H216       C199 1.141       .   S
C200       C199 1.541       .   A
H217       C200 1.141       .   S
C206       C201 1.539       .   A
C202       C201 1.540       .   A
H218       C202 1.140       .   S
C202       C203 1.539       .   A
H219       C203 1.140       .   S
C204       C203 1.540       .   A
C207       C204 1.539       .   S
C205       C204 1.540       .   A
H220       C205 1.140       .   S
C206       C205 1.540       .   A
H221       C206 1.140       .   S
C212       C207 1.540       .   A
C207       C208 1.539       .   A
H222       C208 1.140       .   S
C209       C208 1.540       .   A
H223       C209 1.139       .   S
C210       C209 1.540       .   A
C211       C210 1.541       .   A
C212       C211 1.541       .   A
C211       H225 1.139       .   S
C212       H226 1.139       .   S
C166       C165 1.539       .   A
C165       C170 1.540       .   A
H184       C166 1.140       .   S
C167       C166 1.540       .   A
H185       C167 1.140       .   S
C167       C168 1.540       .   A
C171       C168 1.539       .   S
C169       C168 1.540       .   A
H186       C169 1.141       .   S
C170       C169 1.541       .   A
H187       C170 1.141       .   S
C176       C171 1.539       .   A
C172       C171 1.540       .   A
H188       C172 1.140       .   S
C172       C173 1.539       .   A
H189       C173 1.140       .   S
C174       C173 1.540       .   A
C177       C174 1.539       .   S
C175       C174 1.540       .   A
H190       C175 1.140       .   S
C176       C175 1.540       .   A
H191       C176 1.140       .   S
C182       C177 1.540       .   A
C177       C178 1.539       .   A
H192       C178 1.140       .   S
C179       C178 1.540       .   A
H193       C179 1.139       .   S
C180       C179 1.540       .   A
C181       C180 1.541       .   A
C182       C181 1.541       .   A
C181       H195 1.139       .   S
C182       H196 1.139       .   S
C136       C135 1.539       .   A
C135       C140 1.540       .   A
H154       C136 1.140       .   S
C137       C136 1.540       .   A
H155       C137 1.140       .   S
C137       C138 1.540       .   A
C141       C138 1.539       .   S
C139       C138 1.540       .   A
H156       C139 1.141       .   S
C140       C139 1.541       .   A
H157       C140 1.141       .   S
C146       C141 1.539       .   A
C142       C141 1.540       .   A
H158       C142 1.140       .   S
C142       C143 1.539       .   A
H159       C143 1.140       .   S
C144       C143 1.540       .   A
C147       C144 1.539       .   S
C145       C144 1.540       .   A
H160       C145 1.140       .   S
C146       C145 1.540       .   A
H161       C146 1.140       .   S
C152       C147 1.540       .   A
C147       C148 1.539       .   A
H162       C148 1.140       .   S
C149       C148 1.540       .   A
H163       C149 1.139       .   S
C150       C149 1.540       .   A
C151       C150 1.541       .   A
C152       C151 1.541       .   A
C151       H165 1.139       .   S
C152       H166 1.139       .   S
C106       C105 1.539       .   A
C105       C110 1.540       .   A
H124       C106 1.140       .   S
C107       C106 1.540       .   A
H125       C107 1.140       .   S
C107       C108 1.540       .   A
C111       C108 1.539       .   S
C109       C108 1.540       .   A
H126       C109 1.141       .   S
C110       C109 1.541       .   A
H127       C110 1.141       .   S
C116       C111 1.539       .   A
C112       C111 1.540       .   A
H128       C112 1.140       .   S
C112       C113 1.539       .   A
H129       C113 1.140       .   S
C114       C113 1.540       .   A
C117       C114 1.539       .   S
C115       C114 1.540       .   A
H130       C115 1.140       .   S
C116       C115 1.540       .   A
H131       C116 1.140       .   S
C122       C117 1.540       .   A
C117       C118 1.539       .   A
H132       C118 1.140       .   S
C119       C118 1.540       .   A
H133       C119 1.139       .   S
C120       C119 1.540       .   A
C121       C120 1.541       .   A
C122       C121 1.541       .   A
C121       H135 1.139       .   S
C122       H136 1.139       .   S
C76         C75 1.539       .   A
C75         C80 1.540       .   A
H94         C76 1.140       .   S
C77         C76 1.540       .   A
H95         C77 1.140       .   S
C77         C78 1.540       .   A
C81         C78 1.539       .   S
C79         C78 1.540       .   A
H96         C79 1.141       .   S
C80         C79 1.541       .   A
H97         C80 1.141       .   S
C86         C81 1.539       .   A
C82         C81 1.540       .   A
H98         C82 1.140       .   S
C82         C83 1.539       .   A
H99         C83 1.140       .   S
C84         C83 1.540       .   A
C87         C84 1.539       .   S
C85         C84 1.540       .   A
H100        C85 1.140       .   S
C86         C85 1.540       .   A
H101        C86 1.140       .   S
C92         C87 1.540       .   A
C87         C88 1.539       .   A
H102        C88 1.140       .   S
C89         C88 1.540       .   A
H103        C89 1.139       .   S
C90         C89 1.540       .   A
C91         C90 1.541       .   A
C92         C91 1.541       .   A
C91        H105 1.139       .   S
C92        H106 1.139       .   S
C46         C45 1.539       .   A
C45         C50 1.540       .   A
H64         C46 1.140       .   S
C47         C46 1.540       .   A
H65         C47 1.140       .   S
C47         C48 1.540       .   A
C51         C48 1.539       .   S
C49         C48 1.540       .   A
H66         C49 1.141       .   S
C50         C49 1.541       .   A
H67         C50 1.141       .   S
C56         C51 1.539       .   A
C52         C51 1.540       .   A
H68         C52 1.140       .   S
C52         C53 1.539       .   A
H69         C53 1.140       .   S
C54         C53 1.540       .   A
C57         C54 1.539       .   S
C55         C54 1.540       .   A
H70         C55 1.140       .   S
C56         C55 1.540       .   A
H71         C56 1.140       .   S
C62         C57 1.540       .   A
C57         C58 1.539       .   A
H72         C58 1.140       .   S
C59         C58 1.540       .   A
H73         C59 1.139       .   S
C60         C59 1.540       .   A
C61         C60 1.541       .   A
C62         C61 1.541       .   A
C61         H75 1.139       .   S
C62         H76 1.139       .   S
