data_acs_v1-6c_Al_1_1-1B_2TrU_4H_Ch
_audit_creation_date              2021-04-19
_audit_creation_method            'tobacco_3.0'
_symmetry_space_group_name_H-M    'P1'
_symmetry_Int_Tables_number       1
_symmetry_cell_setting            triclinic
loop_
_symmetry_equiv_pos_as_xyz
  x,y,z
_cell_length_a                    26.129351424381593
_cell_length_b                    26.12935149905769
_cell_length_c                    20.720756164407913
_cell_angle_alpha                 89.99999983912177
_cell_angle_beta                  89.99999712725526
_cell_angle_gamma                 120.00074263671337
loop_
_atom_site_label
_atom_site_type_symbol
_atom_site_fract_x
_atom_site_fract_y
_atom_site_fract_z
_atom_site_charge
O1         O    0.3358587961    0.7569502591    0.6894954511          0.6566
O2         O    0.2430519469    0.5790107238    0.6894954542          0.6566
O3         O    0.4209848428    0.6641434390    0.6894954486          0.6566
O4         O    0.4209903850    0.7569519328    0.6894954485          0.6566
O5         O    0.3358542321    0.5790115025    0.6894954514          0.6566
O6         O    0.2430509687    0.6641409865    0.6894954541          0.6566
C7         C    0.3879081591    0.7759183897    0.6680869643          0.6566
C8         C    0.2240841649    0.6120918445    0.6680869696          0.6566
C9         C    0.3879076829    0.6120897696    0.6680869646          0.6566
O10        O    0.3358587927    0.7569502572    0.8105045484          0.6566
O11        O    0.2430519435    0.5790107219    0.8105045516          0.6566
O12        O    0.4209848395    0.6641434371    0.8105045460          0.6566
O13        O    0.4209903816    0.7569519310    0.8105045458          0.6566
O14        O    0.3358542287    0.5790115007    0.8105045488          0.6566
O15        O    0.2430509654    0.6641409847    0.8105045515          0.6566
Al16      Al    0.2949707056    0.7050224006    0.7499951750             1.0
Al17      Al    0.2949697198    0.5900429769    0.7499951752             1.0
Al18      Al    0.4099519204    0.7050269681    0.7499951715             1.0
O19        O    0.3332989217    0.6666959755    0.7499951739          0.6566
C20        C    0.3879081545    0.7759183872    0.8319130319          0.6566
C21        C    0.2240841604    0.6120918420    0.8319130372          0.6566
C22        C    0.3879076783    0.6120897671    0.8319130322          0.6566
O23        O    0.6640750846    0.2431158525    0.1894954482          0.6566
O24        O    0.7568819339    0.4210553878    0.1894954450          0.6566
O25        O    0.5789490379    0.3359226726    0.1894954506          0.6566
O26        O    0.5789434957    0.2431141787    0.1894954508          0.6566
O27        O    0.6640796487    0.4210546090    0.1894954479          0.6566
O28        O    0.7568829120    0.3359251250    0.1894954452          0.6566
C29        C    0.6120257229    0.2241477225    0.1680869647          0.6566
C30        C    0.7758497170    0.3879742677    0.1680869594 0.6567999999999999
C31        C    0.6120261991    0.3879763426    0.1680869644          0.6566
O32        O    0.6640750813    0.2431158506    0.3105045455          0.6566
O33        O    0.7568819305    0.4210553859    0.3105045424          0.6566
O34        O    0.5789490345    0.3359226707    0.3105045480          0.6566
O35        O    0.5789434923    0.2431141769    0.3105045481          0.6566
O36        O    0.6640796453    0.4210546072    0.3105045452          0.6566
O37        O    0.7568829086    0.3359251232    0.3105045425          0.6566
Al38      Al    0.7049631718    0.2950437091    0.2499951694             1.0
Al39      Al    0.7049641576    0.4100231328    0.2499951692             1.0
Al40      Al    0.5899819570    0.2950391416    0.2499951730             1.0
O41        O    0.6666349557    0.3333701342    0.2499951705          0.6566
C42        C    0.6120257183    0.2241477200    0.3319130323          0.6566
C43        C    0.7758497124    0.3879742652    0.3319130270          0.6566
C44        C    0.6120261945    0.3879763401    0.3319130320          0.6566
C115       C    0.9405760115    0.4641255264    0.0368233544         -0.1702
C116       C    0.9937204288    0.4570288945    0.0556322441         -0.4614
C117       C    0.0498017180    0.4851164437    0.0134933360         -0.4698
C118       C    0.0526827807    0.5202294193    0.9525929480         -0.1545
C119       C    0.9988054337    0.5256423432    0.9326184415         -0.4902
C120       C    0.9427516616    0.4975919019    0.9747670094          -0.473
C121       C    0.1101998725    0.5517791537    0.9130440275         -0.3449
C122       C    0.1679838652    0.5840416502    0.8739880195         -0.6732
C123       C    0.8861168054    0.4396715872    0.0812357545         -0.3312
C124       C    0.8319500122    0.4160244594    0.1260119771         -0.6898
H125       H    0.9918673343    0.4317052313    0.1011530359         -0.2206
H126       H    0.0894402350    0.4805715947    0.0278769256         -0.2224
H127       H    0.0006986300    0.5510344196    0.8871613045         -0.2238
H128       H    0.9031557896    0.5022845310    0.9604854633         -0.2335
C101       C    0.9413760576    0.4637059800    0.4619044262         -0.1702
C102       C    0.9395536148    0.4854343626    0.5305031209         -0.4614
C103       C    0.9957093542    0.5134828658    0.5725236319         -0.4698
C104       C    0.0536022776    0.5197472242    0.5459448689         -0.1545
C105       C    0.0549076922    0.4962219132    0.4781684670         -0.4902
C106       C    0.9987757065    0.4682124915    0.4361442805          -0.473
C107       C    0.1106890088    0.5515226391    0.5861781361         -0.3449
C108       C    0.1679838537    0.5840416446    0.6260119736         -0.6732
C109       C    0.8864892199    0.4394762980    0.4181720478         -0.3312
C110       C    0.8319500237    0.4160244651    0.3739880231         -0.6898
H111       H    0.8969147592    0.4814990472    0.5498393201         -0.2206
H112       H    0.9945930556    0.5303101335    0.6229478188         -0.2224
H113       H    0.0975605768    0.5002393145    0.4588100734         -0.2238
H114       H    0.9999320054    0.4515343907    0.3856222557         -0.2335
C87        C    0.5362350394    0.0587849697    0.4621605285         -0.1702
C88        C    0.5357770243    0.0026529986    0.4386019111         -0.4614
C89        C    0.5076994460    0.9465760906    0.4807477826         -0.4698
C90        C    0.4801479851    0.9466827901    0.5463982272         -0.1545
C91        C    0.4823735368    0.0034118635    0.5709064769         -0.4902
C92        C    0.5104125313    0.0594636618    0.5287547733          -0.473
C93        C    0.4484247580    0.8894534958    0.5864047836         -0.3449
C94        C    0.4159576998    0.8320167467    0.6260129545         -0.6732
C95        C    0.5605169277    0.1135299679    0.4182025794         -0.3312
C96        C    0.5839761776    0.1680493630    0.3739870421         -0.6898
H97        H    0.5554733777    0.0023487530    0.3896513149         -0.2206
H98        H    0.5066205561    0.9047834955    0.4629395738         -0.2224
H99        H    0.4626027832    0.0036811395    0.6198015792         -0.2238
H100       H    0.5113384925    0.1012265067    0.5464814429         -0.2335
C73        C    0.5334680097    0.0533897144    0.0464187073         -0.1702
C74        C    0.5616313768    0.0530647406    0.9812360430         -0.4614
C75        C    0.5335154702    0.9969131003    0.9392090105         -0.4698
C76        C    0.4773107737    0.9411506953    0.9623986112         -0.1545
C77        C    0.4502941804    0.9408623860    0.0285563330         -0.4902
C78        C    0.4783824599    0.9970102802    0.0705552258          -0.473
C79        C    0.4468829490    0.8864472247    0.9183756305         -0.3449
C80        C    0.4159576996    0.8320167512    0.8739870467         -0.6732
C81        C    0.5590378853    0.1106460747    0.0863832203         -0.3312
C82        C    0.5839761778    0.1680493585    0.1260129500         -0.6898
H83        H    0.6027702871    0.0945699599    0.9637034767         -0.2206
H84        H    0.5538679388    0.9969081363    0.8905687788         -0.2224
H85        H    0.4091170078    0.8993926599    0.0460323468         -0.2238
H86        H    0.4579233572    0.9970757608    0.1191334595         -0.2335
C59        C    0.4764571146    0.5359286577    0.9632008569         -0.1702
C60        C    0.5368003247    0.5432101249    0.9445225980         -0.4614
C61        C    0.5647940286    0.5151229560    0.9866611616         -0.4698
C62        C    0.5324598798    0.4798255914    0.0474307424         -0.1545
C63        C    0.4730616744    0.4742252450    0.0672797180         -0.4902
C64        C    0.4450584817    0.5022753517    0.0251314041          -0.473
C65        C    0.5584394566    0.4482818539    0.0869686942         -0.3449
C66        C    0.5839755620    0.4160263419    0.1260114905         -0.6732
C67        C    0.4464638040    0.5603873083    0.9187778721         -0.3312
C68        C    0.4159583154    0.5840397678    0.8739885062         -0.6898
H69        H    0.5603487949    0.5686712238    0.8990965882         -0.2206
H70        H    0.6090553628    0.5198056198    0.9723721060         -0.2224
H71        H    0.4494851796    0.4486959032    0.1126418857         -0.2238
H72        H    0.4006924921    0.4974450812    0.0393179265         -0.2335
C45        C    0.5350957739    0.4750139899    0.4643816635         -0.1702
C46        C    0.4937736252    0.4397239361    0.5204894901         -0.4614
C47        C    0.4657519292    0.4678470842    0.5625263304         -0.4698
C48        C    0.4790920548    0.5312134692    0.5484567243         -0.1545
C49        C    0.5219672630    0.5671965701    0.4937166625         -0.4902
C50        C    0.5499542144    0.5390684932    0.4516665056          -0.473
C51        C    0.4478393610    0.5577662876    0.5875458690         -0.3449
C52        C    0.4159583162    0.5840397723    0.6260114946         -0.6732
C53        C    0.5598453833    0.4455925202    0.4195119575         -0.3312
C54        C    0.5839755612    0.4160263373    0.3739885020         -0.6898
H55        H    0.4832998236    0.3925658481    0.5303570154         -0.2206
H56        H    0.4345296713    0.4414613042    0.6034839568         -0.2224
H57        H    0.5323639241    0.6143091257    0.4837989858         -0.2238
H58        H    0.5810547113    0.5654004706    0.4105665773         -0.2335
loop_
_geom_bond_atom_site_label_1
_geom_bond_atom_site_label_2
_geom_bond_distance
_geom_bond_site_symmetry_2
_ccdc_geom_bond_type
O1         Al16 1.762       .   S
O1           C7 1.272       .   A
O2         Al17 1.762       .   S
O2           C8 1.272       .   A
O3         Al18 1.762       .   S
O3           C9 1.272       .   A
O4         Al18 1.762       .   S
O4           C7 1.272       .   A
O5         Al17 1.762       .   S
O5           C9 1.272       .   A
O6         Al16 1.762       .   S
O6           C8 1.272       .   A
C7          C94 1.540       .   S
C8         C108 1.540       .   S
C9          C52 1.540       .   S
O10        Al16 1.762       .   S
O10         C20 1.272       .   A
O11        Al17 1.762       .   S
O11         C21 1.272       .   A
O12        Al18 1.762       .   S
O12         C22 1.272       .   A
O13        Al18 1.762       .   S
O13         C20 1.272       .   A
O14        Al17 1.762       .   S
O14         C22 1.272       .   A
O15        Al16 1.762       .   S
O15         C21 1.272       .   A
Al16        O19 1.735       .   S
Al17        O19 1.735       .   S
Al18        O19 1.735       .   S
C20         C80 1.540       .   S
C21        C122 1.540       .   S
C22         C68 1.540       .   S
O23        Al38 1.762       .   S
O23         C29 1.272       .   A
O24        Al39 1.762       .   S
O24         C30 1.272       .   A
O25        Al40 1.762       .   S
O25         C31 1.272       .   A
O26        Al40 1.762       .   S
O26         C29 1.272       .   A
O27        Al39 1.762       .   S
O27         C31 1.272       .   A
O28        Al38 1.762       .   S
O28         C30 1.272       .   A
C29         C82 1.540   1_544   S
C30        C124 1.540   1_654   S
C31         C66 1.540   1_554   S
O32        Al38 1.762       .   S
O32         C42 1.272       .   A
O33        Al39 1.762       .   S
O33         C43 1.272       .   A
O34        Al40 1.762       .   S
O34         C44 1.272       .   A
O35        Al40 1.762       .   S
O35         C42 1.272       .   A
O36        Al39 1.762       .   S
O36         C44 1.272       .   A
O37        Al38 1.762       .   S
O37         C43 1.272       .   A
Al38        O41 1.735       .   S
Al39        O41 1.735       .   S
Al40        O41 1.735       .   S
C42         C96 1.540   1_545   S
C43        C110 1.540   1_655   S
C44         C54 1.540       .   S
C123       C115 1.540       .   S
C116       C115 1.540       .   A
C115       C120 1.540       .   A
H125       C116 1.139       .   S
C117       C116 1.540       .   A
H126       C117 1.140       .   S
C117       C118 1.540       .   A
C121       C118 1.540       .   S
C119       C118 1.540       .   A
H127       C119 1.139       .   S
C120       C119 1.540       .   A
H128       C120 1.140       .   S
C122       C121 1.540       .   T
C123       C124 1.540       .   T
C109       C101 1.540       .   S
C102       C101 1.540       .   A
C101       C106 1.540       .   A
H111       C102 1.139       .   S
C103       C102 1.540       .   A
H112       C103 1.140       .   S
C103       C104 1.540       .   A
C107       C104 1.540       .   S
C105       C104 1.540       .   A
H113       C105 1.139       .   S
C106       C105 1.540       .   A
H114       C106 1.140       .   S
C108       C107 1.540       .   T
C109       C110 1.540       .   T
C95         C87 1.540       .   S
C88         C87 1.540       .   A
C87         C92 1.540       .   A
H97         C88 1.139       .   S
C89         C88 1.540       .   A
H98         C89 1.140       .   S
C89         C90 1.540       .   A
C93         C90 1.540       .   S
C91         C90 1.540       .   A
H99         C91 1.139       .   S
C92         C91 1.540       .   A
H100        C92 1.140       .   S
C94         C93 1.540       .   T
C95         C96 1.540       .   T
C81         C73 1.540       .   S
C74         C73 1.540       .   A
C73         C78 1.540       .   A
H83         C74 1.139       .   S
C75         C74 1.540       .   A
H84         C75 1.140       .   S
C75         C76 1.540       .   A
C79         C76 1.540       .   S
C77         C76 1.540       .   A
H85         C77 1.139       .   S
C78         C77 1.540       .   A
H86         C78 1.140       .   S
C80         C79 1.540       .   T
C81         C82 1.540       .   T
C67         C59 1.540       .   S
C60         C59 1.540       .   A
C59         C64 1.540       .   A
H69         C60 1.139       .   S
C61         C60 1.540       .   A
H70         C61 1.140       .   S
C61         C62 1.540       .   A
C65         C62 1.540       .   S
C63         C62 1.540       .   A
H71         C63 1.139       .   S
C64         C63 1.540       .   A
H72         C64 1.140       .   S
C66         C65 1.540       .   T
C67         C68 1.540       .   T
C53         C45 1.540       .   S
C46         C45 1.540       .   A
C45         C50 1.540       .   A
H55         C46 1.139       .   S
C47         C46 1.540       .   A
H56         C47 1.140       .   S
C47         C48 1.540       .   A
C51         C48 1.540       .   S
C49         C48 1.540       .   A
H57         C49 1.139       .   S
C50         C49 1.540       .   A
H58         C50 1.140       .   S
C52         C51 1.540       .   T
C53         C54 1.540       .   T
