data_acs_v1-6c_Al_1_1-1B_2CF3_Ch
_audit_creation_date              2021-04-19
_audit_creation_method            'tobacco_3.0'
_symmetry_space_group_name_H-M    'P1'
_symmetry_Int_Tables_number       1
_symmetry_cell_setting            triclinic
loop_
_symmetry_equiv_pos_as_xyz
  x,y,z
_cell_length_a                    16.987282432119883
_cell_length_b                    16.987282447411747
_cell_length_c                    13.471022372576913
_cell_angle_alpha                 89.99999683326739
_cell_angle_beta                  89.99999678244187
_cell_angle_gamma                 120.00086867493143
loop_
_atom_site_label
_atom_site_type_symbol
_atom_site_fract_x
_atom_site_fract_y
_atom_site_fract_z
_atom_site_charge
O1         O    0.3372360474    0.8055204606    0.6569335622          0.6715
O2         O    0.1944827710    0.5318186068    0.6569335764          0.6715
O3         O    0.4681743968    0.6627677425    0.6569335626          0.6715
O4         O    0.4681831030    0.8055232013    0.6569335577          0.6715
O5         O    0.3372286793    0.5318199859    0.6569335715          0.6715
O6         O    0.1944814328    0.6627636228    0.6569335720          0.6715
C7         C    0.4172969757    0.8346968171    0.6240036154          0.6715
C8         C    0.1653071186    0.5827030358    0.6240036326          0.6715
C9         C    0.4172959229    0.5827001642    0.6240036240          0.6715
O10        O    0.3372360389    0.8055204521    0.8430664281          0.6715
O11        O    0.1944827625    0.5318185984    0.8430664423          0.6715
O12        O    0.4681743883    0.6627677341    0.8430664284          0.6715
O13        O    0.4681830945    0.8055231928    0.8430664236          0.6715
O14        O    0.3372286709    0.5318199774    0.8430664373          0.6715
O15        O    0.1944814243    0.6627636144    0.8430664378          0.6715
Al16      Al    0.2743430144    0.7256463820    0.7499925767             1.0
Al17      Al    0.2743412732    0.5487882121    0.7499925827             1.0
Al18      Al    0.4512039388    0.7256536321    0.7499925706             1.0
O19        O    0.3332983413    0.6666938097    0.7499925767          0.6715
C20        C    0.4172969642    0.8346968057    0.8759963674          0.6715
C21        C    0.1653071072    0.5827030244    0.8759963846          0.6715
C22        C    0.4172959114    0.5827001528    0.8759963760          0.6715
O23        O    0.6626983124    0.1945452015    0.1569335708          0.6715
O24        O    0.8054515889    0.4682470553    0.1569335566          0.6715
O25        O    0.5317599631    0.3372979196    0.1569335704          0.6715
O26        O    0.5317512568    0.1945424608    0.1569335753          0.6715
O27        O    0.6627056805    0.4682456762    0.1569335615          0.6715
O28        O    0.8054529270    0.3373020393    0.1569335610          0.6715
C29        C    0.5826373872    0.1653688480    0.1240036314          0.6715
C30        C    0.8346272442    0.4173626293    0.1240036142          0.6715
C31        C    0.5826384399    0.4173655009    0.1240036229          0.6715
O32        O    0.6626983039    0.1945451931    0.3430664366          0.6715
O33        O    0.8054515804    0.4682470468    0.3430664224          0.6715
O34        O    0.5317599546    0.3372979111    0.3430664363          0.6715
O35        O    0.5317512484    0.1945424524    0.3430664411          0.6715
O36        O    0.6627056720    0.4682456678    0.3430664273          0.6715
O37        O    0.8054529185    0.3373020308    0.3430664269          0.6715
Al38      Al    0.7255913370    0.2744192716    0.2499925755             1.0
Al39      Al    0.7255930781    0.4512774415    0.2499925695             1.0
Al40      Al    0.5487304125    0.2744120216    0.2499925815             1.0
O41        O    0.6666360100    0.3333718440    0.2499925755          0.6715
C42        C    0.5826373757    0.1653688365    0.3759963834          0.6715
C43        C    0.8346272327    0.4173626179    0.3759963662          0.6715
C44        C    0.5826384284    0.4173654894    0.3759963749          0.6715
C125       C    0.0335625410    0.5869806223    0.9635359203         -0.3833
C126       C    0.0790147588    0.5395567292    0.9407149498         -0.3241
C127       C    0.0443496751    0.4507597606    0.9776095925         -0.4098
C128       C    0.9663718103    0.4130850313    0.0364640786         -0.3836
C129       C    0.9209195926    0.4605089245    0.0592850491         -0.3242
C130       C    0.9555932481    0.5493100626    0.0224019291         -0.4089
C131       C    0.9134592572    0.6081066641    0.0451897584          0.2949
H132       H    0.0608289243    0.6553609662    0.9352896556         -0.1982
H133       H    0.9391054270    0.3447046874    0.0647103433          -0.198
C134       C    0.0864922380    0.3919673287    0.9548332858          0.2972
F135       F    0.9725267380    0.6967303245    0.0236150216         -0.5544
F136       F    0.8924216811    0.6052603736    0.1423134489         -0.5277
F137       F    0.8379543567    0.5839671404    0.9912684561         -0.5245
F138       F    0.1619940053    0.4161215356    0.0087576290          -0.525
F139       F    0.1075183569    0.3947880144    0.8577194406         -0.5282
F140       F    0.0274333291    0.3033478379    0.9764195453          -0.555
C109       C    0.0075191558    0.5094509549    0.3981065225         -0.3833
C110       C    0.9209196017    0.4605089263    0.4407149520         -0.3241
C111       C    0.9134234795    0.4513938948    0.5446511773         -0.4098
C112       C    0.9924151955    0.4906146987    0.6018934764         -0.3836
C113       C    0.0790147496    0.5395567273    0.5592850469         -0.3242
C114       C    0.0865097065    0.5486594477    0.4553485663         -0.4089
C115       C    0.1771625020    0.5977850782    0.4009853008          0.2949
H116       H    0.0127809217    0.5158335610    0.3181364189         -0.1982
H117       H    0.9871534296    0.4842320927    0.6818635799          -0.198
C118       C    0.8227695186    0.4022559532    0.5990141875          0.2972
F119       F    0.1661834631    0.5759945488    0.3029428180         -0.5544
F120       F    0.2371207919    0.5744167508    0.4362172673         -0.5277
F121       F    0.2154843551    0.6888558716    0.4061935133         -0.5245
F122       F    0.7844617060    0.3111913297    0.5937916716          -0.525
F123       F    0.7628102186    0.4256234447    0.5638118910         -0.5282
F124       F    0.8337473921    0.4240341715    0.6970564151          -0.555
C93        C    0.4576397634    0.0510618661    0.4912596980         -0.3833
C94        C    0.5394917161    0.0790798087    0.4407139939         -0.3241
C95        C    0.5822590113    0.0266723539    0.4493939627         -0.4098
C96        C    0.5422945879    0.9490037876    0.5087403009         -0.3836
C97        C    0.4604426352    0.9209858450    0.5592860050         -0.3242
C98        C    0.4176838165    0.9734012909    0.5506166351         -0.4089
C99        C    0.3302204085    0.9509920507    0.6047715598          0.2949
H100       H    0.4253575835    0.0919033022    0.4846010532         -0.1982
H101       H    0.5745767679    0.9081623515    0.5153989456          -0.198
C102       C    0.6697308959    0.0490895853    0.3952496369          0.2972
F103       F    0.3173033888    0.0237530700    0.6049724680         -0.5544
F104       F    0.3320795839    0.9293207417    0.7008864134         -0.5277
F105       F    0.2562644705    0.8822048988    0.5615344848         -0.5245
F106       F    0.7436723247    0.1178775409    0.4384960134          -0.525
F107       F    0.6678823016    0.0707445572    0.2991368685         -0.5282
F108       F    0.6826563921    0.9763365572    0.3950593276          -0.555
C77        C    0.4663873197    0.0590578488    0.9960256348         -0.3833
C78        C    0.5394917146    0.0790798001    0.0592860020         -0.3241
C79        C    0.5738555140    0.0189908621    0.0628206031         -0.4098
C80        C    0.5335470317    0.9410078049    0.0039743640         -0.3836
C81        C    0.4604426368    0.9209858536    0.9407139968         -0.3242
C82        C    0.4260716703    0.9810684833    0.9371915349         -0.4089
C83        C    0.3450672375    0.9645632826    0.8736484311          0.2949
H84        H    0.4400630344    0.1053452884    0.9940244173         -0.1982
H85        H    0.5598713169    0.8947203652    0.0059755815          -0.198
C86        C    0.6548527799    0.0354897544    0.1263758460          0.2972
F87        F    0.3114407493    0.0183941494    0.9035489931         -0.5546
F88        F    0.2759137974    0.8779806312    0.8807512723         -0.5277
F89        F    0.3672503525    0.9836551041    0.7771462426         -0.5245
F90        F    0.6326543049    0.0163979591    0.2228699697          -0.525
F91        F    0.7240160133    0.1220553487    0.1192720646         -0.5282
F92        F    0.6884721010    0.9816525793    0.0964874231          -0.555
C61        C    0.5466998392    0.5925543695    0.9829266897         -0.3833
C62        C    0.4604429008    0.5395552189    0.9407151518         -0.3241
C63        C    0.4127845906    0.4453075715    0.9586471798         -0.4098
C64        C    0.4532345121    0.4075112842    0.0170733091         -0.3836
C65        C    0.5394914506    0.4605104348    0.0592848470         -0.3242
C66        C    0.5871536837    0.5547552429    0.0413399575         -0.4089
C67        C    0.6824103374    0.6183315000    0.0807501498          0.2949
H68        H    0.5831098016    0.6648954436    0.9684596035         -0.1982
H69        H    0.4168245498    0.3351702100    0.0315403954          -0.198
C70        C    0.3175318599    0.3817284750    0.9192241259          0.2972
F71        F    0.7213271257    0.6990747834    0.0317600739         -0.5544
F72        F    0.7381641768    0.5838635896    0.0678569455         -0.5277
F73        F    0.6822505460    0.6375711065    0.1777437695         -0.5245
F74        F    0.3177094648    0.3625035544    0.8222335559          -0.525
F75        F    0.2617648490    0.4161699586    0.9321243160         -0.5282
F76        F    0.2786189945    0.3009823523    0.9682013403          -0.555
C45        C    0.5930690393    0.5444730063    0.4874985072         -0.3833
C46        C    0.5394914450    0.4605104294    0.4407151514         -0.3241
C47        C    0.4445548343    0.4155741474    0.4532194754         -0.4098
C48        C    0.4068653120    0.4555926473    0.5125014917         -0.3836
C49        C    0.4604429064    0.5395552242    0.5592848474         -0.3242
C50        C    0.5553796849    0.5844835380    0.5467913533         -0.4089
C51        C    0.6202882808    0.6744646233    0.5967133858          0.2949
H52        H    0.6660302727    0.5784325160    0.4779170215         -0.1982
H53        H    0.3339040786    0.4216331376    0.5220829774          -0.198
C54        C    0.3796464062    0.3255850937    0.4033082728          0.2972
F55        F    0.7069249014    0.6900810181    0.5941499616         -0.5544
F56        F    0.5997342766    0.6751911487    0.6934504996         -0.5277
F57        F    0.6214626011    0.7457376105    0.5513883722         -0.5245
F58        F    0.3784874597    0.2543271990    0.4486417578          -0.525
F59        F    0.4001734937    0.3248473333    0.3065742855         -0.5282
F60        F    0.2930099534    0.3099607306    0.4058825268          -0.555
loop_
_geom_bond_atom_site_label_1
_geom_bond_atom_site_label_2
_geom_bond_distance
_geom_bond_site_symmetry_2
_ccdc_geom_bond_type
O1         Al16 1.762       .   S
O1           C7 1.272       .   A
O2         Al17 1.762       .   S
O2           C8 1.272       .   A
O3         Al18 1.762       .   S
O3           C9 1.272       .   A
O4         Al18 1.762       .   S
O4           C7 1.272       .   A
O5         Al17 1.762       .   S
O5           C9 1.272       .   A
O6         Al16 1.762       .   S
O6           C8 1.272       .   A
C7          C97 1.540       .   S
C8         C113 1.540       .   S
C9          C49 1.540       .   S
O10        Al16 1.762       .   S
O10         C20 1.272       .   A
O11        Al17 1.762       .   S
O11         C21 1.272       .   A
O12        Al18 1.762       .   S
O12         C22 1.272       .   A
O13        Al18 1.762       .   S
O13         C20 1.272       .   A
O14        Al17 1.762       .   S
O14         C22 1.272       .   A
O15        Al16 1.762       .   S
O15         C21 1.272       .   A
Al16        O19 1.735       .   S
Al17        O19 1.735       .   S
Al18        O19 1.735       .   S
C20         C81 1.540       .   S
C21        C126 1.540       .   S
C22         C62 1.540       .   S
O23        Al38 1.762       .   S
O23         C29 1.272       .   A
O24        Al39 1.762       .   S
O24         C30 1.272       .   A
O25        Al40 1.762       .   S
O25         C31 1.272       .   A
O26        Al40 1.762       .   S
O26         C29 1.272       .   A
O27        Al39 1.762       .   S
O27         C31 1.272       .   A
O28        Al38 1.762       .   S
O28         C30 1.272       .   A
C29         C78 1.540   1_544   S
C30        C129 1.540   1_654   S
C31         C65 1.540   1_554   S
O32        Al38 1.762       .   S
O32         C42 1.272       .   A
O33        Al39 1.762       .   S
O33         C43 1.272       .   A
O34        Al40 1.762       .   S
O34         C44 1.272       .   A
O35        Al40 1.762       .   S
O35         C42 1.272       .   A
O36        Al39 1.762       .   S
O36         C44 1.272       .   A
O37        Al38 1.762       .   S
O37         C43 1.272       .   A
Al38        O41 1.735       .   S
Al39        O41 1.735       .   S
Al40        O41 1.735       .   S
C42         C94 1.540   1_545   S
C43        C110 1.540   1_655   S
C44         C46 1.540       .   S
C125       C126 1.401       .   A
C125       C130 1.395       .   A
C125       H132 1.082       .   S
C126       C127 1.407       .   A
C127       C128 1.395       .   A
C127       C134 1.523       .   S
C128       C129 1.401       .   A
C128       H133 1.082       .   S
C129       C130 1.407       .   A
C130       C131 1.523       .   S
C131       F135 1.359       .   S
C131       F136 1.351       .   S
C131       F137 1.347       .   S
C134       F138 1.347       .   S
C134       F139 1.351       .   S
C134       F140 1.359       .   S
C109       C110 1.401       .   A
C109       C114 1.395       .   A
C109       H116 1.082       .   S
C110       C111 1.407       .   A
C111       C112 1.395       .   A
C111       C118 1.523       .   S
C112       C113 1.401       .   A
C112       H117 1.082       .   S
C113       C114 1.407       .   A
C114       C115 1.523       .   S
C115       F119 1.359       .   S
C115       F120 1.351       .   S
C115       F121 1.347       .   S
C118       F122 1.347       .   S
C118       F123 1.351       .   S
C118       F124 1.359       .   S
C93         C94 1.401       .   A
C93         C98 1.395       .   A
C93        H100 1.082       .   S
C94         C95 1.407       .   A
C95         C96 1.395       .   A
C95        C102 1.523       .   S
C96         C97 1.401       .   A
C96        H101 1.082       .   S
C97         C98 1.407       .   A
C98         C99 1.523       .   S
C99        F103 1.359       .   S
C99        F104 1.351       .   S
C99        F105 1.347       .   S
C102       F106 1.347       .   S
C102       F107 1.351       .   S
C102       F108 1.359       .   S
C77         C78 1.401       .   A
C77         C82 1.395       .   A
C77         H84 1.082       .   S
C78         C79 1.407       .   A
C79         C80 1.395       .   A
C79         C86 1.523       .   S
C80         C81 1.401       .   A
C80         H85 1.082       .   S
C81         C82 1.407       .   A
C82         C83 1.523       .   S
C83         F87 1.359       .   S
C83         F88 1.351       .   S
C83         F89 1.347       .   S
C86         F90 1.347       .   S
C86         F91 1.351       .   S
C86         F92 1.359       .   S
C61         C62 1.401       .   A
C61         C66 1.395       .   A
C61         H68 1.082       .   S
C62         C63 1.407       .   A
C63         C64 1.395       .   A
C63         C70 1.523       .   S
C64         C65 1.401       .   A
C64         H69 1.082       .   S
C65         C66 1.407       .   A
C66         C67 1.523       .   S
C67         F71 1.359       .   S
C67         F72 1.351       .   S
C67         F73 1.347       .   S
C70         F74 1.347       .   S
C70         F75 1.351       .   S
C70         F76 1.359       .   S
C45         C46 1.401       .   A
C45         C50 1.395       .   A
C45         H52 1.082       .   S
C46         C47 1.407       .   A
C47         C48 1.395       .   A
C47         C54 1.523       .   S
C48         C49 1.401       .   A
C48         H53 1.082       .   S
C49         C50 1.407       .   A
C50         C51 1.523       .   S
C51         F55 1.359       .   S
C51         F56 1.351       .   S
C51         F57 1.347       .   S
C54         F58 1.347       .   S
C54         F59 1.351       .   S
C54         F60 1.359       .   S
