data_acs_v1-6c_Al_1_Ch_1-1B_2indole_Ch
_audit_creation_date              2021-04-19
_audit_creation_method            'tobacco_3.0'
_symmetry_space_group_name_H-M    'P1'
_symmetry_Int_Tables_number       1
_symmetry_cell_setting            triclinic
loop_
_symmetry_equiv_pos_as_xyz
  x,y,z
_cell_length_a                    23.34239727881864
_cell_length_b                    23.26805491966921
_cell_length_c                    19.13384910927967
_cell_angle_alpha                 89.43402918841886
_cell_angle_beta                  90.34023584548667
_cell_angle_gamma                 119.57274744547283
loop_
_atom_site_label
_atom_site_type_symbol
_atom_site_fract_x
_atom_site_fract_y
_atom_site_fract_z
_atom_site_charge
O1         O    0.3335719713    0.7669858527    0.8250063813         -0.8175
C2         C    0.3916125898    0.6064656358    0.6550492310           0.976
O3         O    0.4323945355    0.6535946490    0.6875778260         -0.7087
O4         O    0.4333631427    0.7641869146    0.6749654347         -0.7446
Al5       Al    0.4240887135    0.7107854121    0.7536723830          1.4898
C6         C    0.3986582524    0.7893502898    0.6568860544          0.9286
O7         O    0.2368225782    0.6665265048    0.6695494816         -0.8068
O8         O    0.2329516739    0.5685231070    0.8317290393         -0.7424
Al9       Al    0.2893726045    0.7118547510    0.7470044657          1.9012
O10        O    0.2211014782    0.5646451338    0.6908934447         -0.7331
O11        O    0.3455723675    0.5642399233    0.8213127372         -0.7316
O12        O    0.3323684461    0.5662758053    0.6783370898         -0.7882
O13        O    0.4330273641    0.6655721952    0.8286274107         -0.7702
O14        O    0.3330574692    0.6655485516    0.7523458221         -1.1316
O15        O    0.4333941944    0.7789195758    0.8166069185         -0.7235
C16        C    0.3933122560    0.7922007270    0.8428885353          0.9837
C17        C    0.2098521835    0.6045094846    0.6579844857          0.9476
Al18      Al    0.2887204265    0.5752072372    0.7554170735          1.5556
O19        O    0.3456041321    0.7782472546    0.6822095536         -0.7697
C20        C    0.4002828498    0.6041538558    0.8449531535          0.9893
C21        C    0.2060818684    0.6035200069    0.8422385401          0.9381
O22        O    0.2212989058    0.6570292003    0.8080079098         -0.8229
O23        O    0.7674660965    0.3340244054    0.1747598064         -0.8175
C24        C    0.6072117216    0.3921117675    0.3449643283           0.976
O25        O    0.6543314810    0.4330714316    0.3122255363         -0.7087
O26        O    0.7644153589    0.4337672047    0.3245709671         -0.7446
Al27      Al    0.7114717423    0.4248195917    0.2460133357          1.4898
C28        C    0.7893396363    0.3988022386    0.3426728963          0.9286
O29        O    0.6667310767    0.2365782467    0.3306888101         -0.8068
O30        O    0.5696527203    0.2334201521    0.1687518286         -0.7424
Al31      Al    0.7122260944    0.2895041072    0.2529995665          1.9012
O32        O    0.5653171934    0.2210762837    0.3096260190         -0.7331
O33        O    0.5655963387    0.3464979206    0.1789102629         -0.7316
O34        O    0.5671397955    0.3327750335    0.3219135891         -0.7882
O35        O    0.6667087384    0.4341333554    0.1711446780         -0.7702
O36        O    0.6662276055    0.3334918280    0.2476649891         -1.1316
O37        O    0.7795366087    0.4342207836    0.1828930426         -0.7235
C38        C    0.7927589517    0.3940233662    0.1566748815          0.9837
C39        C    0.6048830468    0.2095881840    0.3424665899          0.9476
Al40      Al    0.5761850696    0.2891683886    0.2449155730          1.5556
O41        O    0.7782505867    0.3456262888    0.3175021274         -0.7697
C42        C    0.6055332887    0.4014325957    0.1550438206          0.9893
C43        C    0.6044765899    0.2063943373    0.1582224553          0.9381
O44        O    0.6576818676    0.2214522542    0.1922890140         -0.8229
C135       C    0.9256334747    0.4701734354    0.0077473497          0.2038
C136       C    0.9537803101    0.4880288405    0.9331031899         -0.3949
C137       C    0.0294058558    0.5227623402    0.9278268337          0.1936
C138       C    0.0739297549    0.5391373299    0.9922268170            0.22
C139       C    0.0458778645    0.5220329410    0.0669390252            -0.4
C140       C    0.9701453046    0.4865513035    0.0721278291           0.208
N141       N    0.8545978999    0.4328464996    0.0313251659         -0.3328
C142       C    0.8537990194    0.4249621035    0.1102385123         -0.1082
C143       C    0.9257093868    0.4588286720    0.1365956749         -0.2964
N144       N    0.1446224277    0.5699324840    0.9680898040         -0.4622
C145       C    0.1450418008    0.5725812697    0.8886749093         -0.0552
C146       C    0.0733800467    0.5437837562    0.8627080870         -0.2289
H147       H    0.9208572501    0.4755419822    0.8849869664          0.1893
H148       H    0.0788008907    0.5335156727    0.1149415351          0.1772
H150       H    0.9425654909    0.4614887898    0.1930832470          0.1399
H152       H    0.0563103925    0.5378230102    0.8060090720          0.1388
H159       H    0.8106814645    0.4131754209    0.9968149534          0.3203
H160       H    0.1884251556    0.5862591397    0.0023019569          0.3479
C117       C    0.9564419849    0.4510336406    0.4464749809          0.2038
C118       C    0.0152913172    0.4456871622    0.4757357535         -0.3949
C119       C    0.0613529450    0.5017130394    0.5249768578          0.1936
C120       C    0.0500627989    0.5592972708    0.5433237097            0.22
C121       C    0.9916933147    0.5651175427    0.5134226548            -0.4
C122       C    0.9451607575    0.5086053185    0.4648102068           0.208
N123       N    0.9002466172    0.4033031558    0.4007556985         -0.3328
C124       C    0.8530933394    0.4299894143    0.3904771333         -0.1082
C125       C    0.8808244768    0.4961401290    0.4297025888         -0.2964
N126       N    0.1021990785    0.6031738512    0.5951267958         -0.4622
C127       C    0.1460984803    0.5733223089    0.6101802487         -0.0552
C128       C    0.1215357772    0.5101359649    0.5662239046         -0.2289
H129       H    0.0236554674    0.4027101795    0.4626433753          0.1893
H130       H    0.9827342117    0.6075187672    0.5275132591          0.1772
H132       H    0.8572377628    0.5287940106    0.4331393178          0.1399
H134       H    0.1430227177    0.4755416487    0.5658025018          0.1388
H141       H    0.8937225120    0.3561415659    0.3798001362          0.3203
H142       H    0.1066679091    0.6483900278    0.6192668452          0.3479
C99        C    0.5103629213    0.9536900287    0.5503845826          0.2038
C100       C    0.5728844071    0.0176979857    0.5284206523         -0.3949
C101       C    0.5627740646    0.0594147000    0.4718490378          0.1936
C102       C    0.4954016260    0.0386723501    0.4389731201            0.22
C103       C    0.4330056544    0.9742811385    0.4602809092            -0.4
C104       C    0.4430126907    0.9329507796    0.5175116464           0.208
N105       N    0.5018808699    0.9039458410    0.6065841967         -0.3328
C106       C    0.4294410820    0.8520784963    0.6099531877         -0.1082
C107       C    0.3920731390    0.8692110288    0.5541126891         -0.2964
N108       N    0.5026040902    0.0920895715    0.3882984810         -0.4622
C109       C    0.5741002172    0.1468599776    0.3893994566         -0.0552
C110       C    0.6125058869    0.1268945096    0.4409606626         -0.2289
H111       H    0.6230356536    0.0335897424    0.5530633792          0.1893
H112       H    0.3826651309    0.9590131386    0.4364690693          0.1772
H114       H    0.3368911975    0.8406791556    0.5431882945 0.14049999999999999
H116       H    0.6669910045    0.1572021188    0.4546888838          0.1388
H123       H    0.5414264622    0.9058939431    0.6406512513          0.3203
H124       H    0.4623934438    0.0920768840    0.3570377555          0.3479
C81        C    0.4907717187    0.9325845506    0.9810858409          0.2038
C82        C    0.5316871620    0.9659885715    0.0468943190         -0.3949
C83        C    0.5440141452    0.0362761954    0.0608350104          0.1936
C84        C    0.5180306935    0.0711284346    0.0124411304            0.22
C85        C    0.4778021774    0.0380872866    0.9461675778            -0.4
C86        C    0.4648034744    0.9674303883    0.9327025517           0.208
N87        N    0.4664642556    0.8633454594    0.9544882441         -0.3328
C88        C    0.4247596734    0.8538840573    0.8898492944         -0.1082
C89        C    0.4237507046    0.9187662605    0.8751869247         -0.2964
N90        N    0.5361931833    0.1375676734    0.0432454599         -0.4622
C91        C    0.5730291724    0.1447110070    0.1112616962         -0.0552
C92        C    0.5788315450    0.0819918414    0.1226906241         -0.2289
H93        H    0.5507384810    0.9401034808    0.0833356664          0.1893
H94        H    0.4578011215    0.0635830938    0.9104179540          0.1772
H96        H    0.3965108428    0.9282214950    0.8308903476          0.1399
H98        H    0.6029485374    0.0710867061    0.1690348880          0.1388
H105       H    0.4760483398    0.8254626428    0.9789405682          0.3203
H106       H    0.5234477576    0.1740636917    0.0209817329          0.3479
C63        C    0.4496344545    0.4944389751    0.9485362004          0.2038
C64        C    0.4436772399    0.4312154015    0.9820067077         -0.3949
C65        C    0.5019892513    0.4414476366    0.0285345042          0.1936
C66        C    0.5622327300    0.5096157614    0.0404331358            0.22
C67        C    0.5686054516    0.5727567650    0.0063096634            -0.4
C68        C    0.5098639864    0.5625850784    0.9604250614           0.208
N69        N    0.4004335045    0.5027952061    0.9040471053         -0.3328
C70        C    0.4288723344    0.5759166624    0.8881459105         -0.1082
C71        C    0.4975669076    0.6138981505    0.9225218876         -0.2964
N72        N    0.6081217452    0.5021542656    0.0910954459         -0.4622
C73        C    0.5769438041    0.4296697891    0.1118510635         -0.0552
C74        C    0.5107911303    0.3909490477    0.0726786308         -0.2289
H75        H    0.3987601504    0.3804463847    0.9737203196          0.1893
H76        H    0.6130334794    0.6236542097    0.0156080034          0.1772
H78        H    0.5319930101    0.6696311684    0.9212191331          0.1399
H80        H    0.4746965826    0.3357203830    0.0770383040          0.1388
H87        H    0.3513688906    0.4626715728    0.8873768596          0.3203
H88        H    0.6555227108    0.5427442178    0.1109944315          0.3479
C45        C    0.5069644252    0.5520782344    0.5511236733          0.2038
C46        C    0.5705389345    0.5576769249    0.5207831447         -0.3949
C47        C    0.5609015873    0.4997341633    0.4745733169          0.1936
C48        C    0.4929436494    0.4401554460    0.4600733349            0.22
C49        C    0.4294243687    0.4341234186    0.4910764392            -0.4
C50        C    0.4390281738    0.4925130803    0.5366343757           0.208
N51        N    0.4981511574    0.6011501721    0.5944830801         -0.3328
C52        C    0.4249680493    0.5733028318    0.6070758264         -0.1082
C53        C    0.3873799070    0.5050951650    0.5717533900         -0.2964
N54        N    0.5011121829    0.3945590578    0.4104526549         -0.4622
C55        C    0.5738562621    0.4252745716    0.3929377330         -0.0552
C56        C    0.6119893881    0.4908128408    0.4331268347         -0.2289
H57        H    0.6211695803    0.6021099493    0.5310065232          0.1893
H58        H    0.3787051981    0.3902053828    0.4798283447          0.1772
H60        H    0.3317226946    0.4711757711    0.5707173877          0.1399
H62        H    0.6672672313    0.5264830165    0.4310588200          0.1388
H69        H    0.5380766820    0.6497980294    0.6124902459          0.3203
H70        H    0.4608499803    0.3476596378    0.3891717295          0.3479
loop_
_geom_bond_atom_site_label_1
_geom_bond_atom_site_label_2
_geom_bond_distance
_geom_bond_site_symmetry_2
_ccdc_geom_bond_type
O1          C16 1.264       .   A
O1          Al9 1.910       .   S
C2          O12 1.307       .   A
C2           O3 1.213       .   A
C2          C52 1.631       .   S
O3          Al5 1.923       .   S
O4          Al5 1.887       .   S
O4           C6 1.257       .   A
Al5         O13 1.841       .   S
Al5         O14 1.849       .   S
Al5         O15 1.925       .   S
C6          O19 1.234       .   A
C6         C106 1.549       .   S
O7          Al9 1.883       .   S
O7          C17 1.279       .   A
O8         Al18 1.915       .   S
O8          C21 1.267       .   A
Al9         O14 1.814       .   S
Al9         O22 1.873       .   S
Al9         O19 1.904       .   S
O10        Al18 1.918       .   S
O10         C17 1.246       .   A
O11         C20 1.236       .   A
O11        Al18 1.930       .   S
O12        Al18 1.868       .   S
O13         C20 1.281       .   A
O14        Al18 1.829       .   S
O15         C16 1.232       .   A
C16         C88 1.544       .   S
C17        C127 1.584       .   S
C20         C70 1.406       .   S
C21         O22 1.287       .   A
C21        C145 1.526       .   S
O23         C38 1.264       .   A
O23        Al31 1.910       .   S
C24         O34 1.307       .   A
C24         O25 1.213       .   A
C24         C55 1.631       .   S
O25        Al27 1.923       .   S
O26        Al27 1.887       .   S
O26         C28 1.257       .   A
Al27        O35 1.841       .   S
Al27        O36 1.849       .   S
Al27        O37 1.925       .   S
C28         O41 1.234       .   A
C28        C124 1.584   1_655   S
O29        Al31 1.883       .   S
O29         C39 1.279       .   A
O30        Al40 1.915       .   S
O30         C43 1.267       .   A
Al31        O36 1.814       .   S
Al31        O44 1.873       .   S
Al31        O41 1.904       .   S
O32        Al40 1.918       .   S
O32         C39 1.246       .   A
O33         C42 1.236       .   A
O33        Al40 1.930       .   S
O34        Al40 1.868       .   S
O35         C42 1.281       .   A
O36        Al40 1.829       .   S
O37         C38 1.232       .   A
C38        C142 1.526   1_654   S
C39        C109 1.549   1_545   S
C42         C73 1.406   1_554   S
C43         O44 1.287       .   A
C43         C91 1.544   1_544   S
C140       C135 1.531       .   A
C136       C135 1.541       .   A
N141       C135 1.512       .   A
H147       C136 1.140       .   S
C136       C137 1.540       .   A
C137       C146 1.534       .   A
C137       C138 1.532       .   A
N144       C138 1.512       .   A
C139       C138 1.541       .   A
H148       C139 1.140       .   S
C140       C139 1.542       .   A
C140       C143 1.534       .   A
H159       N141 1.110       .   S
C142       N141 1.518       .   A
C143       C142 1.544       .   A
H150       C143 1.140       .   S
N144       C145 1.520       .   A
N144       H160 1.110       .   S
C146       C145 1.544       .   A
H152       C146 1.139       .   S
C122       C117 1.531       .   A
C118       C117 1.541       .   A
N123       C117 1.512       .   A
H129       C118 1.140       .   S
C118       C119 1.540       .   A
C119       C128 1.534       .   A
C119       C120 1.532       .   A
N126       C120 1.512       .   A
C121       C120 1.541       .   A
H130       C121 1.140       .   S
C122       C121 1.542       .   A
C122       C125 1.534       .   A
H141       N123 1.110       .   S
C124       N123 1.518       .   A
C125       C124 1.544       .   A
H132       C125 1.140       .   S
N126       C127 1.520       .   A
N126       H142 1.110       .   S
C128       C127 1.544       .   A
H134       C128 1.139       .   S
C104        C99 1.531       .   A
C100        C99 1.541       .   A
N105        C99 1.512       .   A
H111       C100 1.140       .   S
C100       C101 1.540       .   A
C101       C110 1.534       .   A
C101       C102 1.532       .   A
N108       C102 1.512       .   A
C103       C102 1.541       .   A
H112       C103 1.140       .   S
C104       C103 1.542       .   A
C104       C107 1.534       .   A
H123       N105 1.110       .   S
C106       N105 1.518       .   A
C107       C106 1.544       .   A
H114       C107 1.140       .   S
N108       C109 1.520       .   A
N108       H124 1.110       .   S
C110       C109 1.544       .   A
H116       C110 1.139       .   S
C86         C81 1.531       .   A
C82         C81 1.541       .   A
N87         C81 1.512       .   A
H93         C82 1.140       .   S
C82         C83 1.540       .   A
C83         C92 1.534       .   A
C83         C84 1.532       .   A
N90         C84 1.512       .   A
C85         C84 1.541       .   A
H94         C85 1.140       .   S
C86         C85 1.542       .   A
C86         C89 1.534       .   A
H105        N87 1.110       .   S
C88         N87 1.518       .   A
C89         C88 1.544       .   A
H96         C89 1.140       .   S
N90         C91 1.520       .   A
N90        H106 1.110       .   S
C92         C91 1.544       .   A
H98         C92 1.139       .   S
C68         C63 1.531       .   A
C64         C63 1.541       .   A
N69         C63 1.512       .   A
H75         C64 1.140       .   S
C64         C65 1.540       .   A
C65         C74 1.534       .   A
C65         C66 1.532       .   A
N72         C66 1.512       .   A
C67         C66 1.541       .   A
H76         C67 1.140       .   S
C68         C67 1.542       .   A
C68         C71 1.534       .   A
H87         N69 1.110       .   S
C70         N69 1.518       .   A
C71         C70 1.544       .   A
H78         C71 1.140       .   S
N72         C73 1.520       .   A
N72         H88 1.110       .   S
C74         C73 1.544       .   A
H80         C74 1.139       .   S
C50         C45 1.531       .   A
C46         C45 1.541       .   A
N51         C45 1.512       .   A
H57         C46 1.140       .   S
C46         C47 1.540       .   A
C47         C56 1.534       .   A
C47         C48 1.532       .   A
N54         C48 1.512       .   A
C49         C48 1.541       .   A
H58         C49 1.140       .   S
C50         C49 1.542       .   A
C50         C53 1.534       .   A
H69         N51 1.110       .   S
C52         N51 1.518       .   A
C53         C52 1.544       .   A
H60         C53 1.140       .   S
N54         C55 1.520       .   A
N54         H70 1.110       .   S
C56         C55 1.544       .   A
H62         C56 1.139       .   S
