data_acs_v1-6c_Al_1_1-1B_2thiophene_Ch
_audit_creation_date              2021-04-19
_audit_creation_method            'tobacco_3.0'
_symmetry_space_group_name_H-M    'P1'
_symmetry_Int_Tables_number       1
_symmetry_cell_setting            triclinic
loop_
_symmetry_equiv_pos_as_xyz
  x,y,z
_cell_length_a                    23.883055048295375
_cell_length_b                    23.88305489862062
_cell_length_c                    18.939425531966265
_cell_angle_alpha                 90.00000069206321
_cell_angle_beta                  89.99999913261867
_cell_angle_gamma                 120.00076368219109
loop_
_atom_site_label
_atom_site_type_symbol
_atom_site_fract_x
_atom_site_fract_y
_atom_site_fract_z
_atom_site_charge
O1         O    0.2345613343    0.6639005198    0.8161952505          0.6773
O2         O    0.4292368338    0.7654362751    0.8161952494          0.6773
O3         O    0.3360969963    0.5707680405    0.8161952488          0.6773
O4         O    0.2345594833    0.5707619556    0.8161952498          0.6773
O5         O    0.4292359601    0.6639055542    0.8161952487          0.6773
O6         O    0.3360997209    0.7654373256    0.8161952503          0.6773
C7         C    0.2138091614    0.6069556970    0.8396172912          0.6773
C8         C    0.3930443028    0.7861880478    0.8396172908          0.6773
C9         C    0.3930465345    0.6069562558    0.8396172895          0.6773
O10        O    0.2345613349    0.6639005195    0.6838047513          0.6773
O11        O    0.4292368344    0.7654362748    0.6838047503          0.6773
O12        O    0.3360969970    0.5707680402    0.6838047497          0.6773
O13        O    0.2345594839    0.5707619553    0.6838047506          0.6773
O14        O    0.4292359608    0.6639055539    0.6838047495          0.6773
O15        O    0.3360997216    0.7654373252    0.6838047511          0.6773
Al16      Al    0.2913732295    0.7086343130    0.7500052807             1.0
Al17      Al    0.4171669392    0.7086354181    0.7500052795             1.0
Al18      Al    0.2913682056    0.5828386431    0.7500052798             1.0
O19        O    0.3333044030    0.6667011798    0.7500052800          0.6773
C20        C    0.2138091622    0.6069556966    0.6603827102          0.6773
C21        C    0.3930443037    0.7861880474    0.6603827098          0.6773
C22        C    0.3930465354    0.6069562554    0.6603827085          0.6773
O23        O    0.7653726286    0.3361655138    0.3161952506          0.6773
O24        O    0.5706971291    0.2346297585    0.3161952516          0.6773
O25        O    0.6638369666    0.4292979931    0.3161952522          0.6773
O26        O    0.7653744796    0.4293040779    0.3161952512          0.6773
O27        O    0.5706980027    0.3361604794    0.3161952524          0.6773
O28        O    0.6638342420    0.2346287080    0.3161952507          0.6773
C29        C    0.7861248013    0.3931103367    0.3396172917          0.6773
C30        C    0.6068896599    0.2138779859    0.3396172921          0.6773
C31        C    0.6068874281    0.3931097778    0.3396172934          0.6773
O32        O    0.7653726293    0.3361655134    0.1838047514          0.6773
O33        O    0.5706971298    0.2346297582    0.1838047524          0.6773
O34        O    0.6638369672    0.4292979927    0.1838047530          0.6773
O35        O    0.7653744803    0.4293040776    0.1838047521          0.6773
O36        O    0.5706980034    0.3361604790    0.1838047532          0.6773
O37        O    0.6638342426    0.2346287077    0.1838047516          0.6773
Al38      Al    0.7085607340    0.2914317203    0.2500052812             1.0
Al39      Al    0.5827670244    0.2914306152    0.2500052823             1.0
Al40      Al    0.7085657579    0.4172273901    0.2500052821             1.0
O41        O    0.6666295605    0.3333648535    0.2500052819          0.6773
C42        C    0.7861248022    0.3931103362    0.1603827107          0.6773
C43        C    0.6068896608    0.2138779854    0.1603827110          0.6773
C44        C    0.6068874290    0.3931097774    0.1603827124          0.6773
C125       C    0.9363777715    0.4389251962    0.0156133330         -0.1603
C126       C    0.9819805397    0.4333668201    0.9622237282         -0.6506
C127       C    0.0421602430    0.4972099332    0.9402757041         -0.1164
C128       C    0.0541536695    0.5625821590    0.9694201170         -0.2944
C129       C    0.0080811491    0.5681786612    0.0220729289         -0.5479
C130       C    0.9488338466    0.5042046629    0.0455135824         -0.2026
S131       S    0.8657335595    0.3749297589    0.0569518012         -0.3845
C132       C    0.8474994758    0.4237981296    0.1143513969         -0.4192
C133       C    0.8978687717    0.4960151307    0.1018864644         -0.5853
S134       S    0.1301015994    0.6258064802    0.9364994532         -0.3573
C135       C    0.1524344877    0.5762679037    0.8856486050         -0.4918
C136       C    0.0981061314    0.5046587556    0.8917832125         -0.4717
H137       H    0.9724471572    0.3846223516    0.9412645378         -0.1181
H138       H    0.0180138282    0.6168653187    0.0436808990         -0.1575
H140       H    0.8982459911    0.5378554277    0.1312784867         -0.1325
H142       H    0.0997733407    0.4625285604    0.8656266906          -0.199
C109       C    0.0263657155    0.5103016325    0.5747512791         -0.1603
C110       C    0.9531156159    0.4649280658    0.5653246013         -0.6506
C111       C    0.9260874998    0.4616499504    0.4906611509         -0.1164
C112       C    0.9705483144    0.5032093019    0.4300358540         -0.2944
C113       C    0.0436383252    0.5492226249    0.4397272856         -0.5479
C114       C    0.0709778814    0.5511770148    0.5139054606         -0.2026
S115       S    0.0745116891    0.5216616535    0.6518648329         -0.3845
C116       C    0.1524344866    0.5762679025    0.6143513952         -0.4192
C117       C    0.1433377264    0.5894740621    0.5362577367         -0.5853
S118       S    0.9241095231    0.4843064808    0.3501916578         -0.3573
C119       C    0.8474994770    0.4237981308    0.3856486067         -0.4918
C120       C    0.8553051201    0.4162581847    0.4657605582         -0.4717
H121       H    0.9209331309    0.4344507618    0.6106991557         -0.1181
H122       H    0.0759600347    0.5791300641    0.3941451770         -0.1575
H124       H    0.1846169968    0.6222159076    0.4994103930         -0.1325
H126       H    0.8146810295    0.3806167592    0.5015505954          -0.199
C93        C    0.4885735981    0.0493042988    0.4616201514         -0.1603
C94        C    0.4329578128    0.9991048406    0.5077013648         -0.6506
C95        C    0.4421876502    0.9446698197    0.5387830610         -0.1164
C96        C    0.5033537502    0.9407127241    0.5224154622         -0.2944
C97        C    0.5585559551    0.9904310935    0.4755590585         -0.5479
C98        C    0.5501342735    0.0458648288    0.4460555041         -0.2026
S99        S    0.4965898615    0.1213588295    0.4225253079         -0.3845
C100       C    0.5762011913    0.1525011598    0.3856496194         -0.4192
C101       C    0.6005084786    0.1046707127    0.4021500191         -0.5853
S102       S    0.4998623269    0.8742921353    0.5704850680         -0.3573
C103       C    0.4237327722    0.8475648734    0.6143503825         -0.4918
C104       C    0.3960332714    0.8911414660    0.5911205053         -0.4717
H105       H    0.3880845920    0.0027950049    0.5193705590         -0.1181
H106       H    0.6037813733    0.9871767435    0.4645690396         -0.1575
H108       H    0.6496451176    0.1122121904    0.3853483841         -0.1325
H110       H    0.3486385085    0.8857617383    0.6113751127          -0.199
C77        C    0.4931364321    0.0560040816    0.0277261192         -0.1603
C78        C    0.4358517348    0.0033540967    0.9855416388         -0.6506
C79        C    0.4468874864    0.9515707689    0.9502433213         -0.1164
C80        C    0.5125906468    0.9542756118    0.9560173619         -0.2944
C81        C    0.5701318218    0.0074283797    0.9974125181         -0.5479
C82        C    0.5585363186    0.0582018716    0.0343266123         -0.2026
S83        S    0.4954844728    0.1197357445    0.0800556650         -0.3845
C84        C    0.5762011922    0.1525011601    0.1143503838         -0.4192
C85        C    0.6066172876    0.1136405089    0.0835865613         -0.5853
S86        S    0.5070129424    0.8847916575    0.9128189985         -0.3573
C87        C    0.4237327713    0.8475648732    0.8856496181         -0.4918
C88        C    0.3957500279    0.8907255697    0.9095408399         -0.4717
H89        H    0.3875463626    0.0020047022    0.9818861569         -0.1181
H90        H    0.6181979640    0.0083451731    0.0017697450         -0.1575
H92        H    0.6574374128    0.1236539134    0.0964574325         -0.1325
H94        H    0.3436904110    0.8784962592    0.9001781742          -0.199
C61        C    0.4649721981    0.5384521641    0.0000117151         -0.1603
C62        C    0.4897924272    0.5291007629    0.0715787841         -0.6506
C63        C    0.5176301436    0.4832117008    0.0719825379         -0.1164
C64        C    0.5185220283    0.4478481872    0.0042554699         -0.2944
C65        C    0.4928974996    0.4565480437    0.9329211172         -0.5479
C66        C    0.4666893114    0.5037966596    0.9320781007         -0.2026
S67        S    0.4350401215    0.5919805880    0.9790554673         -0.3845
C68        C    0.4237346509    0.5762673381    0.8856500498         -0.4192
C69        C    0.4427603196    0.5249098863    0.8662872763         -0.5853
S70        S    0.5577015595    0.4020333907    0.0227886578         -0.3573
C71        C    0.5761993126    0.4237986951    0.1143499521         -0.4918
C72        C    0.5502388322    0.4693421648    0.1355297971         -0.4717
H73        H    0.4888670246    0.5557015821    0.1211511374         -0.1181
H74        H    0.4945255109    0.4305366753    0.8831549915         -0.1575
H76        H    0.4406288086    0.5058558473    0.8105841431         -0.1325
H78        H    0.5559282758    0.4913576093    0.1902998305          -0.199
C45        C    0.5076177838    0.4412099459    0.4889760178         -0.1603
C46        C    0.4602531434    0.4365914234    0.5469082581         -0.6506
C47        C    0.4593626286    0.4992778889    0.5634518404         -0.1164
C48        C    0.5049997841    0.5628997949    0.5247780961         -0.2944
C49        C    0.5529653093    0.5676839522    0.4675277983         -0.5479
C50        C    0.5526084533    0.5046081022    0.4496098917         -0.2026
S51        S    0.5173161024    0.3773339290    0.4522990767 -0.38730000000000003
C52        C    0.5761993140    0.4237986934    0.3856500495         -0.4192
C53        C    0.5924130491    0.4951542246    0.3905235302         -0.5853
S54        S    0.4881886307    0.6245410275    0.5537139662         -0.3573
C55        C    0.4237346495    0.5762673398    0.6143499524         -0.4918
C56        C    0.4128653152    0.5066185201    0.6152958736         -0.4717
H57        H    0.4267618747    0.3891284032    0.5749267814         -0.1181
H58        H    0.5859197783    0.6149773651    0.4389115348         -0.1575
H60        H    0.6281483764    0.5354536587    0.3544722816         -0.1325
H62        H    0.3743960118    0.4654662745    0.6483711816          -0.199
loop_
_geom_bond_atom_site_label_1
_geom_bond_atom_site_label_2
_geom_bond_distance
_geom_bond_site_symmetry_2
_ccdc_geom_bond_type
O1         Al16 1.762       .   S
O1           C7 1.272       .   A
O2         Al17 1.762       .   S
O2           C8 1.272       .   A
O3         Al18 1.762       .   S
O3           C9 1.272       .   A
O4         Al18 1.762       .   S
O4           C7 1.272       .   A
O5         Al17 1.762       .   S
O5           C9 1.272       .   A
O6         Al16 1.762       .   S
O6           C8 1.272       .   A
C7         C135 1.540       .   S
C8          C87 1.540       .   S
C9          C68 1.540       .   S
O10        Al16 1.762       .   S
O10         C20 1.272       .   A
O11        Al17 1.762       .   S
O11         C21 1.272       .   A
O12        Al18 1.762       .   S
O12         C22 1.272       .   A
O13        Al18 1.762       .   S
O13         C20 1.272       .   A
O14        Al17 1.762       .   S
O14         C22 1.272       .   A
O15        Al16 1.762       .   S
O15         C21 1.272       .   A
Al16        O19 1.735       .   S
Al17        O19 1.735       .   S
Al18        O19 1.735       .   S
C20        C116 1.540       .   S
C21        C103 1.540       .   S
C22         C55 1.540       .   S
O23        Al38 1.762       .   S
O23         C29 1.272       .   A
O24        Al39 1.762       .   S
O24         C30 1.272       .   A
O25        Al40 1.762       .   S
O25         C31 1.272       .   A
O26        Al40 1.762       .   S
O26         C29 1.272       .   A
O27        Al39 1.762       .   S
O27         C31 1.272       .   A
O28        Al38 1.762       .   S
O28         C30 1.272       .   A
C29        C119 1.540   1_655   S
C30        C100 1.540   1_545   S
C31         C52 1.540       .   S
O32        Al38 1.762       .   S
O32         C42 1.272       .   A
O33        Al39 1.762       .   S
O33         C43 1.272       .   A
O34        Al40 1.762       .   S
O34         C44 1.272       .   A
O35        Al40 1.762       .   S
O35         C42 1.272       .   A
O36        Al39 1.762       .   S
O36         C44 1.272       .   A
O37        Al38 1.762       .   S
O37         C43 1.272       .   A
Al38        O41 1.735       .   S
Al39        O41 1.735       .   S
Al40        O41 1.735       .   S
C42        C132 1.540   1_654   S
C43         C84 1.540   1_544   S
C44         C71 1.540   1_554   S
S131       C125 1.794       .   A
C130       C125 1.541       .   A
C126       C125 1.540       .   A
H137       C126 1.140       .   S
C126       C127 1.540       .   A
C127       C136 1.557       .   A
C127       C128 1.542       .   A
S134       C128 1.794       .   A
C129       C128 1.540       .   A
H138       C129 1.140       .   S
C130       C129 1.540       .   A
C130       C133 1.556       .   A
S131       C132 1.801       .   A
C133       C132 1.550       .   A
H140       C133 1.140       .   S
S134       C135 1.801       .   A
C136       C135 1.550       .   A
H142       C136 1.140       .   S
S115       C109 1.794       .   A
C114       C109 1.541       .   A
C110       C109 1.540       .   A
H121       C110 1.140       .   S
C110       C111 1.540       .   A
C111       C120 1.557       .   A
C111       C112 1.542       .   A
S118       C112 1.794       .   A
C113       C112 1.540       .   A
H122       C113 1.140       .   S
C114       C113 1.540       .   A
C114       C117 1.556       .   A
S115       C116 1.801       .   A
C117       C116 1.550       .   A
H124       C117 1.140       .   S
S118       C119 1.801       .   A
C120       C119 1.550       .   A
H126       C120 1.140       .   S
S99         C93 1.794       .   A
C98         C93 1.541       .   A
C94         C93 1.540       .   A
H105        C94 1.140       .   S
C94         C95 1.540       .   A
C95        C104 1.557       .   A
C95         C96 1.542       .   A
S102        C96 1.794       .   A
C97         C96 1.540       .   A
H106        C97 1.140       .   S
C98         C97 1.540       .   A
C98        C101 1.556       .   A
S99        C100 1.801       .   A
C101       C100 1.550       .   A
H108       C101 1.140       .   S
S102       C103 1.801       .   A
C104       C103 1.550       .   A
H110       C104 1.140       .   S
S83         C77 1.794       .   A
C82         C77 1.541       .   A
C78         C77 1.540       .   A
H89         C78 1.140       .   S
C78         C79 1.540       .   A
C79         C88 1.557       .   A
C79         C80 1.542       .   A
S86         C80 1.794       .   A
C81         C80 1.540       .   A
H90         C81 1.140       .   S
C82         C81 1.540       .   A
C82         C85 1.556       .   A
S83         C84 1.801       .   A
C85         C84 1.550       .   A
H92         C85 1.140       .   S
S86         C87 1.801       .   A
C88         C87 1.550       .   A
H94         C88 1.140       .   S
S67         C61 1.794       .   A
C66         C61 1.541       .   A
C62         C61 1.540       .   A
H73         C62 1.140       .   S
C62         C63 1.540       .   A
C63         C72 1.557       .   A
C63         C64 1.542       .   A
S70         C64 1.794       .   A
C65         C64 1.540       .   A
H74         C65 1.140       .   S
C66         C65 1.540       .   A
C66         C69 1.556       .   A
S67         C68 1.801       .   A
C69         C68 1.550       .   A
H76         C69 1.140       .   S
S70         C71 1.801       .   A
C72         C71 1.550       .   A
H78         C72 1.140       .   S
S51         C45 1.794       .   A
C50         C45 1.541       .   A
C46         C45 1.540       .   A
H57         C46 1.140       .   S
C46         C47 1.540       .   A
C47         C56 1.557       .   A
C47         C48 1.542       .   A
S54         C48 1.794       .   A
C49         C48 1.540       .   A
H58         C49 1.140       .   S
C50         C49 1.540       .   A
C50         C53 1.556       .   A
S51         C52 1.801       .   A
C53         C52 1.550       .   A
H60         C53 1.140       .   S
S54         C55 1.801       .   A
C56         C55 1.550       .   A
H62         C56 1.140       .   S
