data_acs_v1-6c_Al_1_Ch_1-1B_2CN_Ch
_audit_creation_date              2021-04-19
_audit_creation_method            'tobacco_3.0'
_symmetry_space_group_name_H-M    'P1'
_symmetry_Int_Tables_number       1
_symmetry_cell_setting            triclinic
loop_
_symmetry_equiv_pos_as_xyz
  x,y,z
_cell_length_a                    17.061048891143535
_cell_length_b                    17.009796487220427
_cell_length_c                    13.987073090018342
_cell_angle_alpha                 89.53580504552342
_cell_angle_beta                  90.28783608340109
_cell_angle_gamma                 119.55804969835965
loop_
_atom_site_label
_atom_site_type_symbol
_atom_site_fract_x
_atom_site_fract_y
_atom_site_fract_z
_atom_site_charge
O1         O    0.3336415951    0.8039410643    0.8527549829         -0.8228
C2         C    0.4130976544    0.5842141703    0.6199764056          0.9707
O3         O    0.4688776279    0.6487030118    0.6645128949          -0.714
O4         O    0.4701715224    0.7999552687    0.6474240731         -0.7499
Al5       Al    0.4574963744    0.7269921983    0.7550191867          1.4898
C6         C    0.4226846358    0.8343591475    0.6227567149          0.9233
O7         O    0.2013102001    0.6663948495    0.6400216485         -0.8121
O8         O    0.1960383465    0.5325075661    0.8617328655         -0.7477
Al9       Al    0.2731896193    0.7284632069    0.7460036751          1.9012
O10        O    0.1798305520    0.5270672396    0.6690793085         -0.7384
O11        O    0.3501174570    0.5266265299    0.8473902210         -0.7369
O12        O    0.3320559793    0.5292730522    0.6518190437         -0.7935
O13        O    0.4697364990    0.6652231336    0.8574799604         -0.7755
O14        O    0.3329684617    0.6651274011    0.7532074507         -1.1368
O15        O    0.4702062944    0.8202443957    0.8412054103         -0.7288
C16        C    0.4153653040    0.8384400314    0.8772083805          0.9784
C17        C    0.1644296966    0.5815615869    0.6241295230          0.9424
Al18      Al    0.2723361790    0.5415692543    0.7573082276          1.5556
O19        O    0.3501032449    0.8192033488    0.6574226576          -0.775
C20        C    0.4249554972    0.5812365906    0.8797465121           0.984
C21        C    0.1592672119    0.5803884733    0.8761824639          0.9328
O22        O    0.1800713779    0.6535415946    0.8294245703         -0.8282
O23        O    0.8043372167    0.3341724321    0.1469953911         -0.8228
C24        C    0.5850716935    0.4138082995    0.3800380522          0.9707
O25        O    0.6495257719    0.4697941477    0.3352770886          -0.714
O26        O    0.8001321815    0.4707455217    0.3520808573         -0.7499
Al27      Al    0.7277036171    0.4584358734    0.2446451892          1.4898
C28        C    0.8342408714    0.4229364894    0.3767723204          0.9233
O29        O    0.6665450624    0.2010533967    0.3602328984         -0.8121
O30        O    0.5337353699    0.1965853666    0.1387807038         -0.7477
Al31      Al    0.7287738382    0.2733621750    0.2540006959          1.9012
O32        O    0.5278045299    0.1798409936    0.3314754784         -0.7384
O33        O    0.5281535598    0.3512602336    0.1528479127         -0.7369
O34        O    0.5302661637    0.3326311120    0.3484486519         -0.7935
O35        O    0.6664617837    0.4711063006    0.1422766331         -0.7755
O36        O    0.6658304936    0.3335272156    0.2468041231         -1.1368
O37        O    0.8208224613    0.4712247004    0.1582606133         -0.7288
C38        C    0.8389239987    0.4162165593    0.1223254327          0.9784
C39        C    0.5819375581    0.1641557784    0.3763522496          0.9424
Al40      Al    0.5426550072    0.2729104022    0.2430470281          1.5556
O41        O    0.8190854035    0.3501804765    0.3422695024          -0.775
C42        C    0.5827766263    0.4263702339    0.1202502341           0.984
C43        C    0.5813861234    0.1596059586    0.1243099084          0.9328
O44        O    0.6541718412    0.1802292606    0.1708925984         -0.8282
C105       C    0.9218672811    0.4587239603    0.0585940817         -0.0064
C106       C    0.9144430578    0.4445624661    0.9600555452         -0.1251
C107       C    0.9899248600    0.4830171244    0.8997484672           0.016
C108       C    0.0763239295    0.5378810723    0.9399138149         -0.0072
C109       C    0.0837367769    0.5520346253    0.0384594918         -0.1245
C110       C    0.0082663505    0.5135879082    0.0987594293          0.0148
H111       H    0.8478920025    0.4023915261    0.9301003709          0.1446
H112       H    0.1503030933    0.5942042484    0.0684092561          0.1446
C113       C    0.0256363844    0.5337343576    0.1987268070          0.3612
C114       C    0.9725587114    0.4628614168    0.7997828200          0.3602
N115       N    0.0472197511    0.5542813801    0.2776660091         -0.4423
N116       N    0.9510005827    0.4423096455    0.7208522061         -0.4422
C93        C    0.0773181739    0.5397125819    0.5588709166         -0.0064
C94        C    0.0525374916    0.4617451811    0.5058473898         -0.1251
C95        C    0.9756028854    0.4233218880    0.4474502818           0.016
C96        C    0.9213523942    0.4647854944    0.4420309268         -0.0072
C97        C    0.9461453624    0.5427581430    0.4950602657         -0.1245
C98        C    0.0230676826    0.5811761883    0.5534515616          0.0148
H99        H    0.0946352243    0.4305803006    0.5105668229          0.1446
H100       H    0.9040406516    0.5739254742    0.4903233714          0.1446
C101       C    0.0406229241    0.6614234698    0.6040411972          0.3612
C102       C    0.9580529518    0.3430823049    0.3968489970          0.3602
N103       N    0.0484091474    0.7257013735    0.6414443812         -0.4423
N104       N    0.9502634778    0.2788243439    0.3594226179         -0.4422
C81        C    0.4644502046    0.9208513994    0.5581348386         -0.0064
C82        C    0.4236130926    0.9742842085    0.5498337803         -0.1251
C83        C    0.4597942856    0.0522679115    0.4922701176           0.016
C84        C    0.5401719894    0.0776635265    0.4409741259         -0.0072
C85        C    0.5810014825    0.0242189332    0.4492818959         -0.1245
C86        C    0.5448279084    0.9462470144    0.5068388468          0.0148
H87        H    0.3620447390    0.9541425707    0.5894699859          0.1446
H88        H    0.6425722139    0.0443665121    0.4096264375          0.1446
C89        C    0.5937676635    0.8975982253    0.5087963827          0.3612
C90        C    0.4108492894    0.1009108576    0.4903000407          0.3602
N91        N    0.6384312999    0.8636378728    0.5051878395         -0.4423
N92        N    0.3661925928    0.1348681923    0.4938753248         -0.4422
C69        C    0.4584993334    0.9218824612    0.9414080671         -0.0064
C70        C    0.4319111605    0.9873208663    0.9358465756         -0.1251
C71        C    0.4703813482    0.0643301946    0.9938591431           0.016
C72        C    0.5382520940    0.0761635288    0.0601102218         -0.0072
C73        C    0.5648353601    0.0107160729    0.0656611665         -0.1245
C74        C    0.5263700792    0.9337157954    0.0076591458          0.0148
H75        H    0.3798522171    0.9775238670    0.8848059890          0.1446
H76        H    0.6169101479    0.0205298720    0.1167044355          0.1446
C77        C    0.5600827679    0.8718805022    0.0208392340          0.3612
C78        C    0.4366795971    0.1261732368    0.9806711905          0.3602
N79        N    0.5920815746    0.8266820980    0.0372900941         -0.4423
N80        N    0.4047137294    0.1713898059    0.9642207509         -0.4422
C57        C    0.4645268189    0.5424061345    0.9400492752         -0.0064
C58        C    0.5569472117    0.5879957549    0.9585301040         -0.1251
C59        C    0.5975274301    0.5511938110    0.0176610003           0.016
C60        C    0.5432053046    0.4652006900    0.0599474710         -0.0072
C61        C    0.4507812439    0.4196167479    0.0414562546         -0.1245
C62        C    0.4102046935    0.4564130136    0.9823357459          0.0148
H63        H    0.5978855974    0.6538363667    0.9257210346          0.1446
H64        H    0.4098480530    0.3537627140    0.0742660501          0.1446
C65        C    0.3144837954    0.4022033534    0.9694525945          0.3612
C66        C    0.6932498550    0.6053957273    0.0305344902          0.3602
N67        N    0.2373246418    0.3530378531    0.9639864172 -0.44170000000000004
N68        N    0.7704028526    0.6545305480    0.0359935277         -0.4422
C45        C    0.5391603403    0.4593010039    0.4440936187         -0.0064
C46        C    0.4726297255    0.4754284307    0.4059400270         -0.1251
C47        C    0.4319010318    0.5146818053    0.4598634237           0.016
C48        C    0.4590090077    0.5387214659    0.5559208391         -0.0072
C49        C    0.5255457964    0.5225904774    0.5940646646         -0.1245
C50        C    0.5662683161    0.4833406645    0.5401510340          0.0148
H51        H    0.4524186986    0.4567315734    0.3322541874          0.1446
H52        H    0.5457599288    0.5413038857    0.6677584030          0.1446
C53        C    0.6337715948    0.4706053091    0.5883506894          0.3612
C54        C    0.3644070326    0.5274301499    0.4116619009          0.3602
N55        N    0.6870703312    0.4634313802    0.6340112897         -0.4423
N56        N    0.3111282569    0.5346324729    0.3660176085         -0.4422
loop_
_geom_bond_atom_site_label_1
_geom_bond_atom_site_label_2
_geom_bond_distance
_geom_bond_site_symmetry_2
_ccdc_geom_bond_type
O1          C16 1.264       .   A
O1          Al9 1.910       .   S
C2          O12 1.307       .   A
C2           O3 1.213       .   A
C2          C48 1.622       .   S
O3          Al5 1.923       .   S
O4          Al5 1.887       .   S
O4           C6 1.257       .   A
Al5         O13 1.841       .   S
Al5         O14 1.849       .   S
Al5         O15 1.925       .   S
C6          O19 1.234       .   A
C6          C81 1.562       .   S
O7          Al9 1.883       .   S
O7          C17 1.279       .   A
O8         Al18 1.915       .   S
O8          C21 1.267       .   A
Al9         O14 1.814       .   S
Al9         O22 1.873       .   S
Al9         O19 1.904       .   S
O10        Al18 1.918       .   S
O10         C17 1.246       .   A
O11         C20 1.236       .   A
O11        Al18 1.930       .   S
O12        Al18 1.868       .   S
O13         C20 1.281       .   A
O14        Al18 1.829       .   S
O15         C16 1.232       .   A
C16         C69 1.532       .   S
C17         C93 1.582       .   S
C20         C57 1.424       .   S
C21         O22 1.287       .   A
C21        C108 1.521       .   S
O23         C38 1.264       .   A
O23        Al31 1.910       .   S
C24         O34 1.307       .   A
C24         O25 1.213       .   A
C24         C45 1.622       .   S
O25        Al27 1.923       .   S
O26        Al27 1.887       .   S
O26         C28 1.257       .   A
Al27        O35 1.841       .   S
Al27        O36 1.849       .   S
Al27        O37 1.925       .   S
C28         O41 1.234       .   A
C28         C96 1.582   1_655   S
O29        Al31 1.883       .   S
O29         C39 1.279       .   A
O30        Al40 1.915       .   S
O30         C43 1.267       .   A
Al31        O36 1.814       .   S
Al31        O44 1.873       .   S
Al31        O41 1.904       .   S
O32        Al40 1.918       .   S
O32         C39 1.246       .   A
O33         C42 1.236       .   A
O33        Al40 1.930       .   S
O34        Al40 1.868       .   S
O35         C42 1.281       .   A
O36        Al40 1.829       .   S
O37         C38 1.232       .   A
C38        C105 1.521   1_654   S
C39         C84 1.562   1_545   S
C42         C60 1.424   1_554   S
C43         O44 1.287       .   A
C43         C72 1.532   1_544   S
C105       C106 1.395       .   A
C105       C110 1.415       .   A
C106       C107 1.403       .   A
C106       H111 1.084       .   S
C107       C108 1.415       .   A
C107       C114 1.437       .   S
C108       C109 1.395       .   A
C109       C110 1.403       .   A
C109       H112 1.084       .   S
C110       C113 1.437       .   S
C113       N115 1.163       .   T
C114       N116 1.163       .   T
C93         C94 1.395       .   A
C93         C98 1.415       .   A
C94         C95 1.403       .   A
C94         H99 1.084       .   S
C95         C96 1.415       .   A
C95        C102 1.437       .   S
C96         C97 1.395       .   A
C97         C98 1.403       .   A
C97        H100 1.084       .   S
C98        C101 1.437       .   S
C101       N103 1.163       .   T
C102       N104 1.163       .   T
C81         C82 1.395       .   A
C81         C86 1.415       .   A
C82         C83 1.403       .   A
C82         H87 1.084       .   S
C83         C84 1.415       .   A
C83         C90 1.437       .   S
C84         C85 1.395       .   A
C85         C86 1.403       .   A
C85         H88 1.084       .   S
C86         C89 1.437       .   S
C89         N91 1.163       .   T
C90         N92 1.163       .   T
C69         C70 1.395       .   A
C69         C74 1.415       .   A
C70         C71 1.403       .   A
C70         H75 1.084       .   S
C71         C72 1.415       .   A
C71         C78 1.437       .   S
C72         C73 1.395       .   A
C73         C74 1.403       .   A
C73         H76 1.084       .   S
C74         C77 1.437       .   S
C77         N79 1.163       .   T
C78         N80 1.163       .   T
C57         C58 1.395       .   A
C57         C62 1.415       .   A
C58         C59 1.403       .   A
C58         H63 1.084       .   S
C59         C60 1.415       .   A
C59         C66 1.437       .   S
C60         C61 1.395       .   A
C61         C62 1.403       .   A
C61         H64 1.084       .   S
C62         C65 1.437       .   S
C65         N67 1.163       .   T
C66         N68 1.163       .   T
C45         C46 1.395       .   A
C45         C50 1.415       .   A
C46         C47 1.403       .   A
C46         H51 1.084       .   S
C47         C48 1.415       .   A
C47         C54 1.437       .   S
C48         C49 1.395       .   A
C49         C50 1.403       .   A
C49         H52 1.084       .   S
C50         C53 1.437       .   S
C53         N55 1.163       .   T
C54         N56 1.163       .   T
