data_acs_v1-6c_Al_1_1-3B_4H_Ch
_audit_creation_date              2021-04-27
_audit_creation_method            'tobacco_3.0'
_symmetry_space_group_name_H-M    'P1'
_symmetry_Int_Tables_number       1
_symmetry_cell_setting            triclinic
loop_
_symmetry_equiv_pos_as_xyz
  x,y,z
_cell_length_a                    30.524850149461727
_cell_length_b                    30.524850144078282
_cell_length_c                    24.206421094108588
_cell_angle_alpha                 90.00000033992679
_cell_angle_beta                  89.99999962245947
_cell_angle_gamma                 120.00070762557482
loop_
_atom_site_label
_atom_site_type_symbol
_atom_site_fract_x
_atom_site_fract_y
_atom_site_fract_z
_atom_site_charge
O1         O    0.2560455574    0.6645096930    0.8017920432          0.7946
O2         O    0.4083622098    0.7439525306    0.8017920429          0.7946
O3         O    0.3354884498    0.5916415596    0.8017920426          0.7946
O4         O    0.2560441505    0.5916368434    0.8017920429          0.7946
O5         O    0.4083615713    0.6645135462    0.8017920426          0.7946
O6         O    0.3354904952    0.7439533935    0.8017920432          0.7946
C7         C    0.2398088069    0.6199553165    0.8201177592          0.7946
C8         C    0.3800446835    0.7601890091    0.8201177591          0.7946
C9         C    0.3800465092    0.6199556748    0.8201177586          0.7946
O10        O    0.2560455576    0.6645096928    0.6982079574          0.7946
O11        O    0.4083622100    0.7439525304    0.6982079571          0.7946
O12        O    0.3354884500    0.5916415595    0.6982079568          0.7946
O13        O    0.2560441507    0.5916368433    0.6982079571          0.7946
O14        O    0.4083615715    0.6645135460    0.6982079568          0.7946
O15        O    0.3354904954    0.7439533933    0.6982079574          0.7946
Al16      Al    0.3004959191    0.6995099818    0.7500041314             1.0
Al17      Al    0.3989185889    0.6995107911    0.7500041310             1.0
Al18      Al    0.3004920441    0.6010857792    0.7500041310             1.0
O19        O    0.3333034450    0.6667009231    0.7500041311          0.7946
C20        C    0.2398088072    0.6199553163    0.6798822412          0.7946
C21        C    0.3800446838    0.7601890089    0.6798822412          0.7946
C22        C    0.3800465094    0.6199556746    0.6798822407          0.7946
O23        O    0.7438882009    0.3355565447    0.3017920418          0.7946
O24        O    0.5915715485    0.2561137071    0.3017920421          0.7946
O25        O    0.6644453085    0.4084246781    0.3017920424          0.7946
O26        O    0.7438896078    0.4084293942    0.3017920420          0.7946
O27        O    0.5915721870    0.3355526915    0.3017920424          0.7946
O28        O    0.6644432631    0.2561128442    0.3017920418          0.7946
C29        C    0.7601249513    0.3801109213    0.3201177579          0.7946
C30        C    0.6198890747    0.2398772287    0.3201177580          0.7946
C31        C    0.6198872491    0.3801105629    0.3201177585          0.7946
O32        O    0.7438882011    0.3355565446    0.1982079560          0.7946
O33        O    0.5915715487    0.2561137070    0.1982079563          0.7946
O34        O    0.6644453087    0.4084246779    0.1982079565          0.7946
O35        O    0.7438896080    0.4084293941    0.1982079562          0.7946
O36        O    0.5915721872    0.3355526913    0.1982079566          0.7946
O37        O    0.6644432633    0.2561128440    0.1982079560          0.7946
Al38      Al    0.6994378394    0.3005562557    0.2500041301             1.0
Al39      Al    0.6010151696    0.3005554464    0.2500041305             1.0
Al40      Al    0.6994417144    0.3989804584    0.2500041304             1.0
O41        O    0.6666303135    0.3333653145    0.2500041303          0.7946
C42        C    0.7601249516    0.3801109211    0.1798822400          0.7946
C43        C    0.6198890750    0.2398772285    0.1798822400          0.7946
C44        C    0.6198872493    0.3801105627    0.1798822406          0.7946
C195       C    0.8081452344    0.4041213095    0.1438668688         -0.2197
C196       C    0.8589230786    0.4449036623    0.1681753764         -0.2969
C197       C    0.9074393348    0.4665869762    0.1331097770         -0.3267
C198       C    0.9051565417    0.4473775995    0.0737596658         -0.1122
C199       C    0.8545554136    0.4058558577    0.0497879921         -0.3145
C200       C    0.8059847648    0.3843331161    0.0847969336          -0.307
C201       C    0.9534476427    0.4702277767    0.0382532622         -0.1863
C202       C    0.0036320954    0.5127145207    0.0619165769         -0.2974
C203       C    0.0516501895    0.5367194250    0.0259513454         -0.2974
C204       C    0.0494044424    0.5182390683    0.9662837004         -0.1863
C205       C    0.9994228157    0.4751492613    0.9429118748         -0.2976
C206       C    0.9514025155    0.4511019916    0.9789320705         -0.2975
C207       C    0.0970462226    0.5433648171    0.9298113279         -0.1124
C208       C    0.1469618412    0.5862209035    0.9535166702         -0.3265
C209       C    0.1943816579    0.6124383956    0.9167256880         -0.2972
C210       C    0.1917885241    0.5959449280    0.8561331304         -0.2195
C211       C    0.1420148564    0.5525846792    0.8326223650         -0.3071
C212       C    0.0946586357    0.5261640165    0.8695432669         -0.3144
H214       H    0.8605559738    0.4592724364    0.2120386945         -0.0895
H215       H    0.9450015272    0.4970656996    0.1509381916         -0.1175
H216       H    0.8529682003    0.3913103668    0.0059966494         -0.1181
H217       H    0.7684149685    0.3538447822    0.0669562532         -0.0906
H218       H    0.0051458208    0.5265186226    0.1060257273         -0.1215
H219       H    0.0887658464    0.5684243651    0.0433077946         -0.1215
H220       H    0.9979118039    0.4612701869    0.8988359344         -0.1208
H221       H    0.9143020811    0.4193576776    0.9615997481         -0.1208
H222       H    0.1487659100    0.5986320604    0.9982577432         -0.1175
H223       H    0.2312932052    0.6442281489    0.9342258935         -0.0895
H225       H    0.1401933736    0.5401119359    0.7879117244         -0.0907
H226       H    0.0578057793    0.4941451048    0.8521943304         -0.1182
C165       C    0.1917885230    0.5959449272    0.6438668688         -0.2197
C166       C    0.1846414720    0.6273936679    0.5987965113         -0.2969
C167       C    0.1380762080    0.6024134896    0.5606284939         -0.3267
C168       C    0.0987208606    0.5459350118    0.5674885813         -0.1122
C169       C    0.1063533391    0.5141991394    0.6118428499         -0.3145
C170       C    0.1528298891    0.5392583452    0.6501817738          -0.307
C171       C    0.0514483975    0.5214612031    0.5303623671         -0.1863
C172       C    0.0433289811    0.5537204080    0.4871366422         -0.2974
C173       C    0.9953505899    0.5297444380    0.4511082776         -0.2974
C174       C    0.9554788397    0.4735025885    0.4584130941         -0.1863
C175       C    0.9639936845    0.4410057785    0.5009789810         -0.2976
C176       C    0.0120308181    0.4649952934    0.5369724082         -0.2975
C177       C    0.9067925877    0.4499939153    0.4236016129         -0.1124
C178       C    0.8986381878    0.4826027000    0.3809010409         -0.3265
C179       C    0.8493666964    0.4596409664    0.3470545470         -0.2972
C180       C    0.8081452355    0.4041213103    0.3561331304         -0.2195
C181       C    0.8165980213    0.3712846902    0.3983280669         -0.3071
C182       C    0.8660287851    0.3941913607    0.4319500824         -0.3144
H184       H    0.2136792635    0.6692635018    0.5938893511         -0.0895
H185       H    0.1325586628    0.6257687420    0.5275015926         -0.1175
H186       H    0.0774240540    0.4722533712    0.6165767989         -0.1181
H187       H    0.1583429594    0.5158896125    0.6833156163         -0.0906
H188       H    0.0727877559    0.5954314364    0.4819953757         -0.1215
H189       H    0.9891319315    0.5536822870    0.4193343713         -0.1215
H190       H    0.9345869325    0.3992690586    0.5060664172         -0.1208
H191       H    0.0182788406    0.4410452010    0.5686995411         -0.1188
H192       H    0.9290193105    0.5237823818    0.3744633076         -0.1175
H193       H    0.8432786804    0.4837979525    0.3155412249         -0.0895
H195       H    0.7862666910    0.3300915928    0.4047447452         -0.0907
H196       H    0.8723032071    0.3699793436    0.4632249281         -0.1182
C135       C    0.5958780932    0.1918553219    0.3561340197         -0.2197
C136       C    0.6061176425    0.1483736202    0.3434263184         -0.2969
C137       C    0.5845856029    0.1017685367    0.3815309783         -0.3267
C138       C    0.5528983664    0.0987289080    0.4324188058         -0.1122
C139       C    0.5434796548    0.1426601316    0.4457854877         -0.3145
C140       C    0.5648393099    0.1891799527    0.4075154125          -0.307
C141       C    0.5301591334    0.0514118600    0.4694741034         -0.1863
C142       C    0.5385302396    0.0070214577    0.4550230368         -0.2974
C143       C    0.5145599027    0.9590187988    0.4910128115         -0.2974
C144       C    0.4821573080    0.9554347251    0.5414113280         -0.1863
C145       C    0.4744911886    0.0001670333    0.5564371126         -0.2976
C146       C    0.4985300466    0.0482110823    0.5204546816         -0.2975
C147       C    0.4569025219    0.9068054980    0.5763135077         -0.1124
C148       C    0.4649478335    0.8623363805    0.5612677545         -0.3265
C149       C    0.4386284211    0.8130716335    0.5951250100         -0.2972
C150       C    0.4040556653    0.8082109156    0.6438659795         -0.2195
C151       C    0.3965525748    0.8529665245    0.6593984454         -0.3071
C152       C    0.4231310606    0.9023572623    0.6257127416         -0.3144
H154       H    0.6293982717    0.1505429849    0.3056083013         -0.0895
H155       H    0.5918357755    0.0693746398    0.3719200736         -0.1175
H156       H    0.5203902655    0.1405942183    0.4837686746         -0.1181
H157       H    0.5575836128    0.2215801850    0.4171365663         -0.0906
H158       H    0.5623292442    0.0096575081    0.4175117931         -0.1215
H159       H    0.5204523549    0.9259788301    0.4801364579         -0.1215
H160       H    0.4507687300    0.9975838762    0.5940035697         -0.1208
H161       H    0.4926881666    0.0812737461    0.5313672030         -0.1208
H162       H    0.4902745075    0.8658397671    0.5249654774         -0.1175
H163       H    0.4444890571    0.7801201359    0.5839210156         -0.0895
H165       H    0.3712833731    0.8495171988    0.6957285645         -0.0907
H166       H    0.4175609962    0.9354586135    0.6370970842         -0.1182
C105       C    0.4040556645    0.8082109147    0.8561340198         -0.2197
C106       C    0.3754930351    0.8370608243    0.8666930235         -0.2969
C107       C    0.3982371218    0.8832517826    0.9054562410         -0.3267
C108       C    0.4495132218    0.9005035282    0.9337447476         -0.1122
C109       C    0.4776376106    0.8710601478    0.9240736366         -0.3145
C110       C    0.4549776973    0.8249849103    0.8850965679          -0.307
C111       C    0.4728548710    0.9476007614    0.9711496024         -0.1863
C112       C    0.4452287435    0.9776965463    0.9794290541         -0.2974
C113       C    0.4691938588    0.0256872448    0.0154378482         -0.2974
C114       C    0.5208390858    0.0435794600    0.0430843407         -0.1863
C115       C    0.5480788903    0.0130085155    0.0355915101         -0.2976
C116       C    0.5240596118    0.9649619716    0.9996130466         -0.2975
C117       C    0.5454910346    0.0924358337    0.0776253051         -0.1124
C118       C    0.5179379904    0.1226672614    0.0852195401         -0.3265
C119       C    0.5430676152    0.1723203898    0.1184591762         -0.2972
C120       C    0.5958780940    0.1918553228    0.1438659793         -0.2195
C121       C    0.6231587084    0.1612434907    0.1369078008         -0.3071
C122       C    0.5978716225    0.1114127088    0.1039218712         -0.3144
H124       H    0.3376316990    0.8244048888    0.8455501675         -0.0895
H125       H    0.3772855993    0.9048705152    0.9129794303         -0.1175
H126       H    0.5154010363    0.8835796125    0.9454341710         -0.1181
H127       H    0.4759407799    0.8033640068    0.8775770055         -0.0906
H128       H    0.4071029699    0.9645177152    0.9586823605         -0.1215
H129       H    0.4489277099    0.0482004566    0.0213005632         -0.1215
H130       H    0.5861646648    0.0261231353    0.0564114155         -0.1208
H131       H    0.5442955029    0.9424157274    0.9938029378         -0.1208
H132       H    0.4789990343    0.1083590854    0.0660984679         -0.1175
H133       H    0.5227316797    0.1947541093    0.1239799706         -0.0895
H135       H    0.6620666215    0.1754914796    0.1560664574         -0.0907
H136       H    0.6180287955    0.0887723278    0.0986717620         -0.1182
C75        C    0.4040575007    0.5959442456    0.8561345834         -0.2197
C76        C    0.3849058347    0.5388532079    0.8522396378         -0.2969
C77        C    0.4110459109    0.5155225419    0.8857866282         -0.3267
C78        C    0.4564203661    0.5493454796    0.9231388131         -0.1122
C79        C    0.4762443816    0.6066297560    0.9262160658         -0.3145
C80        C    0.4499403626    0.6299203830    0.8928362680          -0.307
C81        C    0.4814903408    0.5256490267    0.9578885500         -0.1863
C82        C    0.4606091136    0.4681573728    0.9558084541         -0.2974
C83        C    0.4845991081    0.4441326220    0.9917781930         -0.2974
C84        C    0.5294372395    0.4776532284    0.0298789038         -0.1863
C85        C    0.5508959990    0.5352667051    0.0312653818         -0.2976
C86        C    0.5269198475    0.5592954653    0.9952215332         -0.2975
C87        C    0.5523378620    0.4533888480    0.0671086174         -0.1124
C88        C    0.5309071107    0.3958133258    0.0652994750         -0.3265
C89        C    0.5527549524    0.3711774873    0.1035782537         -0.2972
C90        C    0.5958762578    0.4041219919    0.1438654158         -0.2195
C91        C    0.6177956371    0.4618315351    0.1451418222         -0.3071
C92        C    0.5961243520    0.4864989970    0.1066037826         -0.3144
H94        H    0.3511696836    0.5137885724    0.8247613603         -0.0895
H95        H    0.3966489136    0.4731761800    0.8832429173         -0.1175
H96        H    0.5101474433    0.6317420151    0.9535053234         -0.1181
H97        H    0.4643477252    0.6722804351    0.8953854409         -0.0906
H98        H    0.4272312681    0.4433725091    0.9277699674         -0.1215
H99        H    0.4689490734    0.4015108150    0.9905509196         -0.1215
H100       H    0.5843328589    0.5600791696    0.0592250207         -0.1208
H101       H    0.5426064273    0.6019223330    0.9963988206         -0.1208
H102       H    0.4987702650    0.3714149263    0.0357319057         -0.1175
H103       H    0.5368252611    0.3285582028    0.1023313695         -0.0895
H105       H    0.6499670564    0.4862613245    0.1746462058         -0.0907
H106       H    0.6122427043    0.5291587546    0.1075570822         -0.1182
C45        C    0.4040575001    0.5959442462    0.6438654170         -0.2197
C46        C    0.3726969450    0.5575744401    0.5985755757         -0.2969
C47        C    0.3976927118    0.5359984695    0.5604186145         -0.3267
C48        C    0.4540991066    0.5529049217    0.5675097513         -0.1122
C49        C    0.4857521171    0.5920504999    0.6120868423         -0.3145
C50        C    0.4606761392    0.6134580366    0.6504139326          -0.307
C51        C    0.4785805805    0.5301108820    0.5303891763         -0.1863
C52        C    0.4463968106    0.4899506591    0.4869357966         -0.2974
C53        C    0.4703723222    0.4659481166    0.4509077110         -0.2974
C54        C    0.5265378155    0.4820992339    0.4584404618         -0.1863
C55        C    0.5589638373    0.5228954018    0.5012367473         -0.2976
C56        C    0.5349751253    0.5469434224    0.5372299954         -0.2975
C57        C    0.5500374882    0.4569162641    0.4236240838         -0.1124
C58        C    0.5175012336    0.4163700308    0.3806935444         -0.3265
C59        C    0.5404467510    0.3900510055    0.3468368661         -0.2972
C60        C    0.5958762584    0.4041219913    0.3561345822         -0.2195
C61        C    0.6286439809    0.4451965773    0.3985618617         -0.3071
C62        C    0.6057551549    0.4717310285    0.4321949109         -0.3144
H64        H    0.3308792958    0.5449020540    0.5934966932         -0.0895
H65        H    0.3744007551    0.5072917267    0.5271280508         -0.1175
H66        H    0.5276469659    0.6049080736    0.6169933339         -0.1181
H67        H    0.4839815575    0.6421737218    0.6837115080         -0.0906
H68        H    0.4047408749    0.4778595010    0.4816251316         -0.1215
H69        H    0.4464884879    0.4359520995    0.4189642618         -0.1215
H70        H    0.6006459343    0.5350645382    0.5064939075         -0.1208
H71        H    0.5588715287    0.5769812652    0.5691268410         -0.1208
H72        H    0.4763864781    0.4057384471    0.3740926659         -0.1175
H73        H    0.5163428351    0.3599661581    0.3151530316         -0.0895
H75        H    0.6697724592    0.4558915237    0.4051419262         -0.0907
H76        H    0.6299158930    0.5020585121    0.4636412036         -0.1182
loop_
_geom_bond_atom_site_label_1
_geom_bond_atom_site_label_2
_geom_bond_distance
_geom_bond_site_symmetry_2
_ccdc_geom_bond_type
O1         Al16 1.762       .   S
O1           C7 1.272       .   A
O2         Al17 1.762       .   S
O2           C8 1.272       .   A
O3         Al18 1.762       .   S
O3           C9 1.272       .   A
O4         Al18 1.762       .   S
O4           C7 1.272       .   A
O5         Al17 1.762       .   S
O5           C9 1.272       .   A
O6         Al16 1.762       .   S
O6           C8 1.272       .   A
C7         C210 1.540       .   S
C8         C105 1.540       .   S
C9          C75 1.540       .   S
O10        Al16 1.762       .   S
O10         C20 1.272       .   A
O11        Al17 1.762       .   S
O11         C21 1.272       .   A
O12        Al18 1.762       .   S
O12         C22 1.272       .   A
O13        Al18 1.762       .   S
O13         C20 1.272       .   A
O14        Al17 1.762       .   S
O14         C22 1.272       .   A
O15        Al16 1.762       .   S
O15         C21 1.272       .   A
Al16        O19 1.735       .   S
Al17        O19 1.735       .   S
Al18        O19 1.735       .   S
C20        C165 1.540       .   S
C21        C150 1.540       .   S
C22         C45 1.540       .   S
O23        Al38 1.762       .   S
O23         C29 1.272       .   A
O24        Al39 1.762       .   S
O24         C30 1.272       .   A
O25        Al40 1.762       .   S
O25         C31 1.272       .   A
O26        Al40 1.762       .   S
O26         C29 1.272       .   A
O27        Al39 1.762       .   S
O27         C31 1.272       .   A
O28        Al38 1.762       .   S
O28         C30 1.272       .   A
C29        C180 1.540   1_655   S
C30        C135 1.540   1_545   S
C31         C60 1.540       .   S
O32        Al38 1.762       .   S
O32         C42 1.272       .   A
O33        Al39 1.762       .   S
O33         C43 1.272       .   A
O34        Al40 1.762       .   S
O34         C44 1.272       .   A
O35        Al40 1.762       .   S
O35         C42 1.272       .   A
O36        Al39 1.762       .   S
O36         C44 1.272       .   A
O37        Al38 1.762       .   S
O37         C43 1.272       .   A
Al38        O41 1.735       .   S
Al39        O41 1.735       .   S
Al40        O41 1.735       .   S
C42        C195 1.540   1_654   S
C43        C120 1.540   1_544   S
C44         C90 1.540   1_554   S
C196       C195 1.539       .   A
C195       C200 1.540       .   A
H214       C196 1.140       .   S
C197       C196 1.540       .   A
H215       C197 1.140       .   S
C197       C198 1.540       .   A
C201       C198 1.539       .   S
C199       C198 1.540       .   A
H216       C199 1.141       .   S
C200       C199 1.541       .   A
H217       C200 1.141       .   S
C206       C201 1.539       .   A
C202       C201 1.540       .   A
H218       C202 1.140       .   S
C202       C203 1.539       .   A
H219       C203 1.140       .   S
C204       C203 1.540       .   A
C207       C204 1.539       .   S
C205       C204 1.540       .   A
H220       C205 1.140       .   S
C206       C205 1.540       .   A
H221       C206 1.140       .   S
C212       C207 1.540       .   A
C207       C208 1.539       .   A
H222       C208 1.140       .   S
C209       C208 1.540       .   A
H223       C209 1.139       .   S
C210       C209 1.540       .   A
C211       C210 1.541       .   A
C212       C211 1.541       .   A
C211       H225 1.139       .   S
C212       H226 1.139       .   S
C166       C165 1.539       .   A
C165       C170 1.540       .   A
H184       C166 1.140       .   S
C167       C166 1.540       .   A
H185       C167 1.140       .   S
C167       C168 1.540       .   A
C171       C168 1.539       .   S
C169       C168 1.540       .   A
H186       C169 1.141       .   S
C170       C169 1.541       .   A
H187       C170 1.141       .   S
C176       C171 1.539       .   A
C172       C171 1.540       .   A
H188       C172 1.140       .   S
C172       C173 1.539       .   A
H189       C173 1.140       .   S
C174       C173 1.540       .   A
C177       C174 1.539       .   S
C175       C174 1.540       .   A
H190       C175 1.140       .   S
C176       C175 1.540       .   A
H191       C176 1.140       .   S
C182       C177 1.540       .   A
C177       C178 1.539       .   A
H192       C178 1.140       .   S
C179       C178 1.540       .   A
H193       C179 1.139       .   S
C180       C179 1.540       .   A
C181       C180 1.541       .   A
C182       C181 1.541       .   A
C181       H195 1.139       .   S
C182       H196 1.139       .   S
C136       C135 1.539       .   A
C135       C140 1.540       .   A
H154       C136 1.140       .   S
C137       C136 1.540       .   A
H155       C137 1.140       .   S
C137       C138 1.540       .   A
C141       C138 1.539       .   S
C139       C138 1.540       .   A
H156       C139 1.141       .   S
C140       C139 1.541       .   A
H157       C140 1.141       .   S
C146       C141 1.539       .   A
C142       C141 1.540       .   A
H158       C142 1.140       .   S
C142       C143 1.539       .   A
H159       C143 1.140       .   S
C144       C143 1.540       .   A
C147       C144 1.539       .   S
C145       C144 1.540       .   A
H160       C145 1.140       .   S
C146       C145 1.540       .   A
H161       C146 1.140       .   S
C152       C147 1.540       .   A
C147       C148 1.539       .   A
H162       C148 1.140       .   S
C149       C148 1.540       .   A
H163       C149 1.139       .   S
C150       C149 1.540       .   A
C151       C150 1.541       .   A
C152       C151 1.541       .   A
C151       H165 1.139       .   S
C152       H166 1.139       .   S
C106       C105 1.539       .   A
C105       C110 1.540       .   A
H124       C106 1.140       .   S
C107       C106 1.540       .   A
H125       C107 1.140       .   S
C107       C108 1.540       .   A
C111       C108 1.539       .   S
C109       C108 1.540       .   A
H126       C109 1.141       .   S
C110       C109 1.541       .   A
H127       C110 1.141       .   S
C116       C111 1.539       .   A
C112       C111 1.540       .   A
H128       C112 1.140       .   S
C112       C113 1.539       .   A
H129       C113 1.140       .   S
C114       C113 1.540       .   A
C117       C114 1.539       .   S
C115       C114 1.540       .   A
H130       C115 1.140       .   S
C116       C115 1.540       .   A
H131       C116 1.140       .   S
C122       C117 1.540       .   A
C117       C118 1.539       .   A
H132       C118 1.140       .   S
C119       C118 1.540       .   A
H133       C119 1.139       .   S
C120       C119 1.540       .   A
C121       C120 1.541       .   A
C122       C121 1.541       .   A
C121       H135 1.139       .   S
C122       H136 1.139       .   S
C76         C75 1.539       .   A
C75         C80 1.540       .   A
H94         C76 1.140       .   S
C77         C76 1.540       .   A
H95         C77 1.140       .   S
C77         C78 1.540       .   A
C81         C78 1.539       .   S
C79         C78 1.540       .   A
H96         C79 1.141       .   S
C80         C79 1.541       .   A
H97         C80 1.141       .   S
C86         C81 1.539       .   A
C82         C81 1.540       .   A
H98         C82 1.140       .   S
C82         C83 1.539       .   A
H99         C83 1.140       .   S
C84         C83 1.540       .   A
C87         C84 1.539       .   S
C85         C84 1.540       .   A
H100        C85 1.140       .   S
C86         C85 1.540       .   A
H101        C86 1.140       .   S
C92         C87 1.540       .   A
C87         C88 1.539       .   A
H102        C88 1.140       .   S
C89         C88 1.540       .   A
H103        C89 1.139       .   S
C90         C89 1.540       .   A
C91         C90 1.541       .   A
C92         C91 1.541       .   A
C91        H105 1.139       .   S
C92        H106 1.139       .   S
C46         C45 1.539       .   A
C45         C50 1.540       .   A
H64         C46 1.140       .   S
C47         C46 1.540       .   A
H65         C47 1.140       .   S
C47         C48 1.540       .   A
C51         C48 1.539       .   S
C49         C48 1.540       .   A
H66         C49 1.141       .   S
C50         C49 1.541       .   A
H67         C50 1.141       .   S
C56         C51 1.539       .   A
C52         C51 1.540       .   A
H68         C52 1.140       .   S
C52         C53 1.539       .   A
H69         C53 1.140       .   S
C54         C53 1.540       .   A
C57         C54 1.539       .   S
C55         C54 1.540       .   A
H70         C55 1.140       .   S
C56         C55 1.540       .   A
H71         C56 1.140       .   S
C62         C57 1.540       .   A
C57         C58 1.539       .   A
H72         C58 1.140       .   S
C59         C58 1.540       .   A
H73         C59 1.139       .   S
C60         C59 1.540       .   A
C61         C60 1.541       .   A
C62         C61 1.541       .   A
C61         H75 1.139       .   S
C62         H76 1.139       .   S
