data_acs_v1-6c_Al_1_Ch_1-1B_4Br_Ch
_audit_creation_date              2021-04-19
_audit_creation_method            'tobacco_3.0'
_symmetry_space_group_name_H-M    'P1'
_symmetry_Int_Tables_number       1
_symmetry_cell_setting            triclinic
loop_
_symmetry_equiv_pos_as_xyz
  x,y,z
_cell_length_a                    17.01627315194185
_cell_length_b                    16.96518193278553
_cell_length_c                    13.950390442831482
_cell_angle_alpha                 89.53679597276458
_cell_angle_beta                  90.28735214817645
_cell_angle_gamma                 119.55793200827007
loop_
_atom_site_label
_atom_site_type_symbol
_atom_site_fract_x
_atom_site_fract_y
_atom_site_fract_z
_atom_site_charge
O1         O    0.3336422657    0.8043025790    0.8530266312         -0.8294
C2         C    0.4133077365    0.5839963573    0.6196332192          0.9642
O3         O    0.4692343613    0.6486550125    0.6642872088         -0.7205
O4         O    0.4705313992    0.8003047671    0.6471550577         -0.7565
Al5       Al    0.4578230356    0.7271506581    0.7550323751          1.4898
C6         C    0.4229195123    0.8347989424    0.6224234540          0.9167
O7         O    0.2009629235    0.6663933472    0.6397331566         -0.8187
O8         O    0.1956774455    0.5321556692    0.8620259505         -0.7542
Al9       Al    0.2730313608    0.7286255812    0.7459941404          1.9012
O10        O    0.1794270031    0.5266996847    0.6688658501         -0.7449
O11        O    0.3501619518    0.5262589779    0.8476447219         -0.7434
O12        O    0.3320529350    0.5289110819    0.6515594253            -0.8
O13        O    0.4700954779    0.6652199308    0.8577618407         -0.7821
O14        O    0.3329675923    0.6651232899    0.7532158694         -1.1434
O15        O    0.4705662420    0.8206486051    0.8414461469         -0.7354
C16        C    0.4155809347    0.8388923628    0.8775442662          0.9718
C17        C    0.1639855308    0.5813369802    0.6237985334          0.9358
Al18      Al    0.2721759967    0.5412403928    0.7573264307          1.5556
O19        O    0.3501471862    0.8196035909    0.6571807680         -0.7816
C20        C    0.4251968018    0.5810127846    0.8800862810          0.9775
C21        C    0.1588094839    0.5801625728    0.8765142463          0.9263
O22        O    0.1796682572    0.6535076587    0.8296340760         -0.8348
O23        O    0.8046976688    0.3341731847    0.1467241906         -0.8294
C24        C    0.5848551413    0.4140202052    0.3803816161          0.9642
O25        O    0.6494786998    0.4701528724    0.3355032109         -0.7205
O26        O    0.8004813585    0.4711067748    0.3523503839         -0.7565
Al27      Al    0.7278622426    0.4587640424    0.2446324701          1.4898
C28        C    0.8346798732    0.4231722150    0.3771060866          0.9167
O29        O    0.6665432291    0.2007058082    0.3605217064         -0.8187
O30        O    0.5333840958    0.1962245303    0.1384878668         -0.7542
Al31      Al    0.7289355960    0.2732038779    0.2540106119          1.9012
O32        O    0.5274377001    0.1794375205    0.3316891740         -0.7449
O33        O    0.5277873376    0.3513061196    0.1525937311         -0.7434
O34        O    0.5299055519    0.3326294222    0.3487085818            -0.8
O35        O    0.6664592484    0.4714670840    0.1419951978         -0.7821
O36        O    0.6658265427    0.3335270711    0.2467960833         -1.1434
O37        O    0.8212260540    0.4715858143    0.1580203982         -0.7354
C38        C    0.8393753070    0.4164327965    0.1219900511          0.9718
C39        C    0.5817131851    0.1637113587    0.3766834957          0.9358
Al40      Al    0.5423270816    0.2727509538    0.2430291139          1.5556
O41        O    0.8194846514    0.3502246994    0.3425118549         -0.7816
C42        C    0.5825539873    0.4266133066    0.1199108473          0.9775
C43        C    0.5811602811    0.1591477758    0.1239783798          0.9263
O44        O    0.6541374695    0.1798255819    0.1706833924         -0.8348
C95        C    0.9850703187    0.5514206661    0.0655126566         -0.0299
C96        C    0.9225314422    0.4590554599    0.0580869978          0.0669
C97        C    0.9367569870    0.4059461747    0.9918701688          -0.031
C98        C    0.0131179475    0.4451623180    0.9330222045          -0.031
C99        C    0.0756533487    0.5375399094    0.9404172995          0.0683
C100       C    0.0614428145    0.5906213154    0.0067029461          -0.033
Br101     Br    0.1470308946    0.7153472179    0.0147484353         -0.0185
Br102     Br    0.9641501322    0.6212690115    0.1561666927         -0.0192
Br103     Br    0.0340150808    0.3753354584    0.8424946802         -0.0188
Br104     Br    0.8513216662    0.2812771661    0.9839412363         -0.0186
C85        C    0.9583281164    0.5536421562    0.4765203070         -0.0299
C86        C    0.9220199754    0.4651214692    0.4425350976          0.0669
C87        C    0.9630335746    0.4137190602    0.4667101236          -0.031
C88        C    0.0403084448    0.4508507905    0.5244013515          -0.031
C89        C    0.0766454287    0.5393877260    0.5583695224          0.0683
C90        C    0.0355683395    0.5907526676    0.5342412792          -0.033
Br91      Br    0.0864829211    0.7103288443    0.5809844333         -0.0185
Br92      Br    0.9009611623    0.6211906065    0.4430039578         -0.0192
Br93      Br    0.0975719920    0.3833160830    0.5579119584         -0.0188
Br94      Br    0.9120708549    0.2941729360    0.4201490944         -0.0186
C75        C    0.5371353581    0.9399974332    0.4969858245         -0.0299
C76        C    0.4647887054    0.9215234147    0.5576290979          0.0669
C77        C    0.4299026741    0.9808029270    0.5599723337          -0.031
C78        C    0.4674722488    0.0584857607    0.5021069116          -0.031
C79        C    0.5398439920    0.0769868864    0.4414778517          0.0683
C80        C    0.5746712388    0.0176484483    0.4390951417          -0.033
Br81      Br    0.6727291225    0.0446941557    0.3566503027         -0.0185
Br82      Br    0.5824132757    0.8582083098    0.4950713000         -0.0192
Br83      Br    0.4221773337    0.1401570022    0.5040068352         -0.0188
Br84      Br    0.3318116719    0.9537023742    0.6422255122         -0.0186
C65        C    0.4922963201    0.9178219290    0.0322488609         -0.0299
C66        C    0.4588317458    0.9225459505    0.9419150681          0.0669
C67        C    0.4651263853    0.0039108777    0.9104303441          -0.031
C68        C    0.5044655230    0.0802150339    0.9692518201          -0.031
C69        C    0.5379094700    0.0754941882    0.0596075780          0.0683
C70        C    0.5316685918    0.9941290669    0.0910429619          -0.033
Br71      Br    0.5771987832    0.9898134900    0.2136730645         -0.0185
Br72      Br    0.4832385805    0.8069411454    0.0724894306         -0.0192
Br73      Br    0.5135442781    0.1909977981    0.9289920225         -0.0188
Br74      Br    0.4197794135    0.0082799256    0.7878220225         -0.0186
C55        C    0.4509284195    0.5371953344    0.0396198973         -0.0299
C56        C    0.4648752313    0.5420801564    0.9405592878          0.0669
C57        C    0.5177339418    0.5084753952    0.9009992452          -0.031
C58        C    0.5567923327    0.4704095744    0.9603646683          -0.031
C59        C    0.5428755579    0.4655459348    0.0594378406          0.0683
C60        C    0.4899474764    0.4990952527    0.0989714435          -0.033
Br61      Br    0.4726619287    0.4918381872    0.2331755219         -0.0177
Br62      Br    0.3786634615    0.5827560781    0.0908204730         -0.0192
Br63      Br    0.6289483490    0.4248525328    0.9091683456         -0.0188
Br64      Br    0.5348802112    0.5155741086    0.7668772157         -0.0186
C45        C    0.5519903779    0.5692687315    0.5629030289         -0.0299
C46        C    0.4593447566    0.5383810037    0.5554268801          0.0669
C47        C    0.4064555721    0.4679353730    0.4925876162          -0.031
C48        C    0.4461609106    0.4287335466    0.4371430832          -0.031
C49        C    0.5388181213    0.4596355588    0.4445879552          0.0683
C50        C    0.5916814154    0.5300419334    0.5074981133          -0.033
Br51      Br    0.7167853516    0.5705274787    0.5156901178         -0.0185
Br52      Br    0.6215459251    0.6642805661    0.6489633224         -0.0192
Br53      Br    0.3766278892    0.3337722885    0.3512066162         -0.0188
Br54      Br    0.2814136402    0.4273615699    0.4845194871         -0.0186
loop_
_geom_bond_atom_site_label_1
_geom_bond_atom_site_label_2
_geom_bond_distance
_geom_bond_site_symmetry_2
_ccdc_geom_bond_type
O1          C16 1.264       .   A
O1          Al9 1.910       .   S
C2          O12 1.307       .   A
C2           O3 1.213       .   A
C2          C46 1.622       .   S
O3          Al5 1.923       .   S
O4          Al5 1.887       .   S
O4           C6 1.257       .   A
Al5         O13 1.841       .   S
Al5         O14 1.849       .   S
Al5         O15 1.925       .   S
C6          O19 1.234       .   A
C6          C76 1.562       .   S
O7          Al9 1.883       .   S
O7          C17 1.279       .   A
O8         Al18 1.915       .   S
O8          C21 1.267       .   A
Al9         O14 1.814       .   S
Al9         O22 1.873       .   S
Al9         O19 1.904       .   S
O10        Al18 1.918       .   S
O10         C17 1.246       .   A
O11         C20 1.236       .   A
O11        Al18 1.930       .   S
O12        Al18 1.868       .   S
O13         C20 1.281       .   A
O14        Al18 1.829       .   S
O15         C16 1.232       .   A
C16         C66 1.532       .   S
C17         C89 1.582       .   S
C20         C56 1.424       .   S
C21         O22 1.287       .   A
C21         C99 1.521       .   S
O23         C38 1.264       .   A
O23        Al31 1.910       .   S
C24         O34 1.307       .   A
C24         O25 1.213       .   A
C24         C49 1.622       .   S
O25        Al27 1.923       .   S
O26        Al27 1.887       .   S
O26         C28 1.257       .   A
Al27        O35 1.841       .   S
Al27        O36 1.849       .   S
Al27        O37 1.925       .   S
C28         O41 1.234       .   A
C28         C86 1.582   1_655   S
O29        Al31 1.883       .   S
O29         C39 1.279       .   A
O30        Al40 1.915       .   S
O30         C43 1.267       .   A
Al31        O36 1.814       .   S
Al31        O44 1.873       .   S
Al31        O41 1.904       .   S
O32        Al40 1.918       .   S
O32         C39 1.246       .   A
O33         C42 1.236       .   A
O33        Al40 1.930       .   S
O34        Al40 1.868       .   S
O35         C42 1.281       .   A
O36        Al40 1.829       .   S
O37         C38 1.232       .   A
C38         C96 1.521   1_654   S
C39         C79 1.562   1_545   S
C42         C59 1.424   1_554   S
C43         O44 1.287       .   A
C43         C69 1.532   1_544   S
C95         C96 1.398       .   A
C95        C100 1.398       .   A
C95       Br102 1.891       .   S
C96         C97 1.398       .   A
C97         C98 1.398       .   A
C97       Br104 1.889       .   S
C98         C99 1.398       .   A
C98       Br103 1.889       .   S
C99        C100 1.398       .   A
C100      Br101 1.890       .   S
C85         C86 1.398       .   A
C85         C90 1.398       .   A
C85        Br92 1.891       .   S
C86         C87 1.398       .   A
C87         C88 1.398       .   A
C87        Br94 1.889       .   S
C88         C89 1.398       .   A
C88        Br93 1.889       .   S
C89         C90 1.398       .   A
C90        Br91 1.890       .   S
C75         C76 1.398       .   A
C75         C80 1.398       .   A
C75        Br82 1.891       .   S
C76         C77 1.398       .   A
C77         C78 1.398       .   A
C77        Br84 1.889       .   S
C78         C79 1.398       .   A
C78        Br83 1.889       .   S
C79         C80 1.398       .   A
C80        Br81 1.890       .   S
C65         C66 1.398       .   A
C65         C70 1.398       .   A
C65        Br72 1.891       .   S
C66         C67 1.398       .   A
C67         C68 1.398       .   A
C67        Br74 1.889       .   S
C68         C69 1.398       .   A
C68        Br73 1.889       .   S
C69         C70 1.398       .   A
C70        Br71 1.890       .   S
C55         C56 1.398       .   A
C55         C60 1.398       .   A
C55        Br62 1.891       .   S
C56         C57 1.398       .   A
C57         C58 1.398       .   A
C57        Br64 1.889       .   S
C58         C59 1.398       .   A
C58        Br63 1.889       .   S
C59         C60 1.398       .   A
C60        Br61 1.890       .   S
C45         C46 1.398       .   A
C45         C50 1.398       .   A
C45        Br52 1.891       .   S
C46         C47 1.398       .   A
C47         C48 1.398       .   A
C47        Br54 1.889       .   S
C48         C49 1.398       .   A
C48        Br53 1.889       .   S
C49         C50 1.398       .   A
C50        Br51 1.890       .   S
