data_acs_v1-6c_Al_1_1-1B_4H_Ch
_audit_creation_date              2021-04-19
_audit_creation_method            'tobacco_3.0'
_symmetry_space_group_name_H-M    'P1'
_symmetry_Int_Tables_number       1
_symmetry_cell_setting            triclinic
loop_
_symmetry_equiv_pos_as_xyz
  x,y,z
_cell_length_a                    17.356503397954064
_cell_length_b                    17.356502895376472
_cell_length_c                    13.763817697635321
_cell_angle_alpha                 90.00000101929015
_cell_angle_beta                  90.00000305310478
_cell_angle_gamma                 120.00086184761317
loop_
_atom_site_label
_atom_site_type_symbol
_atom_site_fract_x
_atom_site_fract_y
_atom_site_fract_z
_atom_site_charge
O1         O    0.1974326483    0.6628477002    0.8410866422         -0.0612
O2         O    0.4653120859    0.8025641975    0.8410866525         -0.0612
O3         O    0.3371486224    0.5346947619    0.8410866454         -0.0612
O4         O    0.1974299735    0.5346862518    0.8410866408         -0.0612
O5         O    0.4653107446    0.6628548906    0.8410866510         -0.0612
O6         O    0.3371526385    0.8025655172    0.8410866483         -0.0612
C7         C    0.1688769620    0.5844898945    0.8733160705         -0.0612
C8         C    0.4155101127    0.8311192089    0.8733160813         -0.0612
C9         C    0.4155129378    0.5844909056    0.8733160786         -0.0612
O10        O    0.1974326421    0.6628476958    0.6589133488         -0.0612
O11        O    0.4653120798    0.8025641931    0.6589133591         -0.0612
O12        O    0.3371486162    0.5346947575    0.6589133520         -0.0612
O13        O    0.1974299673    0.5346862474    0.6589133474         -0.0612
O14        O    0.4653107384    0.6628548862    0.6589133576         -0.0612
O15        O    0.3371526324    0.8025655128    0.6589133549         -0.0612
Al16      Al    0.2756075698    0.7244028115    0.7500072642             1.0
Al17      Al    0.4487034693    0.7244045021    0.7500072698             1.0
Al18      Al    0.2756004842    0.5513042096    0.7500072623             1.0
O19        O    0.3333060587    0.6667016234    0.7500072654         -0.0612
C20        C    0.1688769537    0.5844898885    0.6266839170         -0.0612
C21        C    0.4155101043    0.8311192029    0.6266839277         -0.0612
C22        C    0.4155129295    0.5844908996    0.6266839250         -0.0612
O23        O    0.8025016773    0.3372179886    0.3410866482         -0.0612
O24        O    0.5346222396    0.1975014913    0.3410866379         -0.0612
O25        O    0.6627857032    0.4653709269    0.3410866450         -0.0612
O26        O    0.8025043521    0.4653794370    0.3410866496         -0.0612
O27        O    0.5346235810    0.3372107982    0.3410866395         -0.0612
O28        O    0.6627816870    0.1975001716    0.3410866421         -0.0612
C29        C    0.8310573657    0.4155757959    0.3733160801         -0.0612
C30        C    0.5844242151    0.1689464815    0.3733160693         -0.0612
C31        C    0.5844213899    0.4155747848    0.3733160720         -0.0612
O32        O    0.8025016711    0.3372179842    0.1589133548         -0.0612
O33        O    0.5346222335    0.1975014869    0.1589133445         -0.0612
O34        O    0.6627856970    0.4653709225    0.1589133516         -0.0612
O35        O    0.8025043459    0.4653794326    0.1589133562         -0.0612
O36        O    0.5346235749    0.3372107938    0.1589133461         -0.0612
O37        O    0.6627816809    0.1975001672    0.1589133487         -0.0612
Al38      Al    0.7243267496    0.2756628729    0.2500072637             1.0
Al39      Al    0.5512308501    0.2756611823    0.2500072581             1.0
Al40      Al    0.7243338352    0.4487614749    0.2500072656             1.0
O41        O    0.6666282608    0.3333640610    0.2500072625         -0.0612
C42        C    0.8310573574    0.4155757899    0.1266839265         -0.0612
C43        C    0.5844242067    0.1689464755    0.1266839158         -0.0612
C44        C    0.5844213816    0.4155747789    0.1266839185         -0.0612
C95        C    0.0143571970    0.5711900463    0.9240643822         -0.0612
C96        C    0.0844235153    0.5422620956    0.9366569437         -0.0612
C97        C    0.0700334780    0.4711048915    0.0125925600         -0.0612
C98        C    0.9855771224    0.4288756381    0.0759356148         -0.0612
C99        C    0.9155108041    0.4578035888    0.0633430534         -0.0612
C100       C    0.9299008414    0.5289607930    0.9874074370         -0.0612
H101       H    0.0250095624    0.6238648598    0.8678523026         -0.0612
H102       H    0.1218958624    0.4496902732    0.0219159324         -0.0612
H103       H    0.9749247571    0.3762008246    0.1321476945         -0.0612
H104       H    0.8780384571    0.5503754112    0.9780840646         -0.0612
C85        C    0.0919900630    0.5359459271    0.4524889161         -0.0612
C86        C    0.0844235217    0.5422620979    0.5633430565         -0.0612
C87        C    0.9924006184    0.5063490130    0.6108541389         -0.0612
C88        C    0.9079442564    0.4641197574    0.5475110809         -0.0612
C89        C    0.9155107977    0.4578035865    0.4366569405         -0.0612
C90        C    0.0075337010    0.4937166714    0.3891458581         -0.0612
H91        H    0.1601109135    0.5625309379    0.4173183746         -0.0612
H92        H    0.9867969791    0.5110230837    0.6929094832         -0.0636
H93        H    0.8398234059    0.4375347465    0.5826816224         -0.0612
H94        H    0.0131373403    0.4890426007    0.3070905138         -0.0612
C75        C    0.4062014170    0.9647193744    0.5426666414         -0.0612
C76        C    0.4577385555    0.9155758695    0.5633420779         -0.0612
C77        C    0.5515042982    0.9508893373    0.5206754350         -0.0612
C78        C    0.5937329024    0.0353463100    0.4573333556         -0.0612
C79        C    0.5421957639    0.0844898149    0.4366579191         -0.0612
C80        C    0.4484300212    0.0491763471    0.4793245620         -0.0612
H81        H    0.3367904126    0.9385782359    0.5742510394         -0.0612
H82        H    0.5896548724    0.9145146072    0.5359779693         -0.0612
H83        H    0.6631439068    0.0614874485    0.4257489576         -0.0612
H84        H    0.4102794470    0.0855510772    0.4640220277         -0.0612
C65        C    0.4824722625    0.0062008566    0.8913720965         -0.0612
C66        C    0.4577385553    0.9155758639    0.9366579186         -0.0612
C67        C    0.4752334525    0.9094078495    0.0452858207         -0.0612
C68        C    0.5174620569    0.9938648278    0.1086279006         -0.0612
C69        C    0.5421957641    0.0844898205    0.0633420784         -0.0612
C70        C    0.5247008669    0.0906578349    0.9547141763         -0.0612
H71        H    0.4695214945    0.0107667893    0.8109592339         -0.0612
H72        H    0.4569262040    0.8423273568    0.0788096631         -0.0612
H73        H    0.5304128249    0.9892988951    0.1890407631         -0.0612
H74        H    0.5430081154    0.1577383276    0.9211903340         -0.0612
C55        C    0.4940819105    0.4865455309    0.8890914387         -0.0612
C56        C    0.4577401140    0.5422618086    0.9366581364         -0.0612
C57        C    0.4636253632    0.5557491200    0.0475666962         -0.0612
C58        C    0.5058524089    0.5135201535    0.1109085583         -0.0612
C59        C    0.5421942054    0.4578038758    0.0633418606         -0.0612
C60        C    0.5363089562    0.4443165645    0.9524333008         -0.0612
H61        H    0.4897252975    0.4765614173    0.8069902971         -0.0612
H62        H    0.4367254809    0.5969905376    0.0827789067         -0.0612
H63        H    0.5102090219    0.5235042671    0.1930096999         -0.0612
H64        H    0.5632088386    0.4030751469    0.9172210903         -0.0612
C45        C    0.4725848122    0.4684872777    0.6054405733         -0.0612
C46        C    0.4577401118    0.5422618037    0.5633418610         -0.0612
C47        C    0.4851224593    0.5738073683    0.4579012862         -0.0612
C48        C    0.5273495072    0.5315784067    0.3945594237         -0.0612
C49        C    0.5421942076    0.4578038807    0.4366581360         -0.0612
C50        C    0.5148118601    0.4262583162    0.5420987108         -0.0612
H51        H    0.4523147627    0.4451353663    0.6834939858         -0.0612
H52        H    0.4741353313    0.6284160086    0.4267366320         -0.0612
H53        H    0.5476195567    0.5549303182    0.3165060112         -0.0612
H54        H    0.5257989881    0.3716496758    0.5732633650         -0.0612
loop_
_geom_bond_atom_site_label_1
_geom_bond_atom_site_label_2
_geom_bond_distance
_geom_bond_site_symmetry_2
_ccdc_geom_bond_type
O1         Al16 1.762       .   S
O1           C7 1.272       .   A
O2         Al17 1.762       .   S
O2           C8 1.272       .   A
O3         Al18 1.762       .   S
O3           C9 1.272       .   A
O4         Al18 1.762       .   S
O4           C7 1.272       .   A
O5         Al17 1.762       .   S
O5           C9 1.272       .   A
O6         Al16 1.762       .   S
O6           C8 1.272       .   A
C7          C96 1.540       .   S
C8          C66 1.540       .   S
C9          C56 1.540       .   S
O10        Al16 1.762       .   S
O10         C20 1.272       .   A
O11        Al17 1.762       .   S
O11         C21 1.272       .   A
O12        Al18 1.762       .   S
O12         C22 1.272       .   A
O13        Al18 1.762       .   S
O13         C20 1.272       .   A
O14        Al17 1.762       .   S
O14         C22 1.272       .   A
O15        Al16 1.762       .   S
O15         C21 1.272       .   A
Al16        O19 1.735       .   S
Al17        O19 1.735       .   S
Al18        O19 1.735       .   S
C20         C86 1.540       .   S
C21         C76 1.540       .   S
C22         C46 1.540       .   S
O23        Al38 1.762       .   S
O23         C29 1.272       .   A
O24        Al39 1.762       .   S
O24         C30 1.272       .   A
O25        Al40 1.762       .   S
O25         C31 1.272       .   A
O26        Al40 1.762       .   S
O26         C29 1.272       .   A
O27        Al39 1.762       .   S
O27         C31 1.272       .   A
O28        Al38 1.762       .   S
O28         C30 1.272       .   A
C29         C89 1.540   1_655   S
C30         C79 1.540   1_545   S
C31         C49 1.540       .   S
O32        Al38 1.762       .   S
O32         C42 1.272       .   A
O33        Al39 1.762       .   S
O33         C43 1.272       .   A
O34        Al40 1.762       .   S
O34         C44 1.272       .   A
O35        Al40 1.762       .   S
O35         C42 1.272       .   A
O36        Al39 1.762       .   S
O36         C44 1.272       .   A
O37        Al38 1.762       .   S
O37         C43 1.272       .   A
Al38        O41 1.735       .   S
Al39        O41 1.735       .   S
Al40        O41 1.735       .   S
C42         C99 1.540   1_654   S
C43         C69 1.540   1_544   S
C44         C59 1.540   1_554   S
C95         C96 1.540       .   A
C95        C100 1.540       .   A
C95        H101 1.140       .   S
C96         C97 1.540       .   A
C97         C98 1.540       .   A
C97        H102 1.140       .   S
C98         C99 1.540       .   A
C98        H103 1.140       .   S
C99        C100 1.540       .   A
C100       H104 1.140       .   S
C85         C86 1.540       .   A
C85         C90 1.540       .   A
C85         H91 1.140       .   S
C86         C87 1.540       .   A
C87         C88 1.540       .   A
C87         H92 1.140       .   S
C88         C89 1.540       .   A
C88         H93 1.140       .   S
C89         C90 1.540       .   A
C90         H94 1.140       .   S
C75         C76 1.540       .   A
C75         C80 1.540       .   A
C75         H81 1.140       .   S
C76         C77 1.540       .   A
C77         C78 1.540       .   A
C77         H82 1.140       .   S
C78         C79 1.540       .   A
C78         H83 1.140       .   S
C79         C80 1.540       .   A
C80         H84 1.140       .   S
C65         C66 1.540       .   A
C65         C70 1.540       .   A
C65         H71 1.140       .   S
C66         C67 1.540       .   A
C67         C68 1.540       .   A
C67         H72 1.140       .   S
C68         C69 1.540       .   A
C68         H73 1.140       .   S
C69         C70 1.540       .   A
C70         H74 1.140       .   S
C55         C56 1.540       .   A
C55         C60 1.540       .   A
C55         H61 1.140       .   S
C56         C57 1.540       .   A
C57         C58 1.540       .   A
C57         H62 1.140       .   S
C58         C59 1.540       .   A
C58         H63 1.140       .   S
C59         C60 1.540       .   A
C60         H64 1.140       .   S
C45         C46 1.540       .   A
C45         C50 1.540       .   A
C45         H51 1.140       .   S
C46         C47 1.540       .   A
C47         C48 1.540       .   A
C47         H52 1.140       .   S
C48         C49 1.540       .   A
C48         H53 1.140       .   S
C49         C50 1.540       .   A
C50         H54 1.140       .   S
