data_acs_v1-6c_Al_1_1-3B_4H_Ch
_audit_creation_date              2021-04-27
_audit_creation_method            'tobacco_3.0'
_symmetry_space_group_name_H-M    'P1'
_symmetry_Int_Tables_number       1
_symmetry_cell_setting            triclinic
loop_
_symmetry_equiv_pos_as_xyz
  x,y,z
_cell_length_a                    30.52485046495607
_cell_length_b                    30.52484970425262
_cell_length_c                    24.20642109746885
_cell_angle_alpha                 89.99999951805427
_cell_angle_beta                  89.99999985286225
_cell_angle_gamma                 120.00070788716859
loop_
_atom_site_label
_atom_site_type_symbol
_atom_site_fract_x
_atom_site_fract_y
_atom_site_fract_z
_atom_site_charge
O1         O    0.2560455583    0.6645096930    0.8017920430          0.7946
O2         O    0.4083622095    0.7439525313    0.8017920424          0.7946
O3         O    0.3354884488    0.5916415578    0.8017920433          0.7946
O4         O    0.2560441506    0.5916368420    0.8017920434          0.7946
O5         O    0.4083615702    0.6645135454    0.8017920428          0.7946
O6         O    0.3354904959    0.7439533947    0.8017920425          0.7946
C7         C    0.2398088075    0.6199553156    0.8201177594          0.7946
C8         C    0.3800446838    0.7601890102    0.8201177584          0.7946
C9         C    0.3800465079    0.6199556731    0.8201177591          0.7946
O10        O    0.2560455587    0.6645096935    0.6982079572          0.7946
O11        O    0.4083622099    0.7439525319    0.6982079566          0.7946
O12        O    0.3354884492    0.5916415583    0.6982079575          0.7946
O13        O    0.2560441510    0.5916368426    0.6982079576          0.7946
O14        O    0.4083615705    0.6645135459    0.6982079570          0.7946
O15        O    0.3354904963    0.7439533952    0.6982079567          0.7946
Al16      Al    0.3004959199    0.6995099827    0.7500041310             1.0
Al17      Al    0.3989185884    0.6995107914    0.7500041309             1.0
Al18      Al    0.3004920439    0.6010857780    0.7500041315             1.0
O19        O    0.3333034450    0.6667009231    0.7500041311          0.7946
C20        C    0.2398088080    0.6199553163    0.6798822414          0.7946
C21        C    0.3800446843    0.7601890109    0.6798822405          0.7946
C22        C    0.3800465084    0.6199556739    0.6798822412          0.7946
O23        O    0.7438882003    0.3355565435    0.3017920432          0.7946
O24        O    0.5915715491    0.2561137052    0.3017920438          0.7946
O25        O    0.6644453098    0.4084246788    0.3017920429          0.7946
O26        O    0.7438896080    0.4084293945    0.3017920428          0.7946
O27        O    0.5915721885    0.3355526912    0.3017920434          0.7946
O28        O    0.6644432627    0.2561128419    0.3017920437          0.7946
C29        C    0.7601249510    0.3801109208    0.3201177590          0.7946
C30        C    0.6198890747    0.2398772262    0.3201177599          0.7946
C31        C    0.6198872506    0.3801105632    0.3201177592          0.7946
O32        O    0.7438882007    0.3355565441    0.1982079574          0.7946
O33        O    0.5915715495    0.2561137058    0.1982079580          0.7946
O34        O    0.6644453102    0.4084246793    0.1982079571          0.7946
O35        O    0.7438896084    0.4084293951    0.1982079570          0.7946
O36        O    0.5915721889    0.3355526917    0.1982079576          0.7946
O37        O    0.6644432631    0.2561128424    0.1982079579          0.7946
Al38      Al    0.6994378391    0.3005562544    0.2500041316             1.0
Al39      Al    0.6010151706    0.3005554457    0.2500041318             1.0
Al40      Al    0.6994417152    0.3989804590    0.2500041311             1.0
O41        O    0.6666303141    0.3333653140    0.2500041315          0.7946
C42        C    0.7601249515    0.3801109215    0.1798822410          0.7946
C43        C    0.6198890752    0.2398772269    0.1798822420          0.7946
C44        C    0.6198872511    0.3801105640    0.1798822412          0.7946
C195       C    0.1917885236    0.5959449268    0.8561331314         -0.2197
C196       C    0.1398989724    0.5797627037    0.8300565466         -0.2969
C197       C    0.0916144180    0.5529522420    0.8654906477         -0.3267
C198       C    0.0952494263    0.5422394696    0.9269913439         -0.1122
C199       C    0.1470369144    0.5575091436    0.9528498239         -0.3145
C200       C    0.1953589620    0.5845329874    0.9174455035          -0.307
C201       C    0.0470750872    0.5168055622    0.9626834470         -0.1863
C202       C    0.9955986261    0.5029087004    0.9369653009         -0.2974
C203       C    0.9475811069    0.4788910766    0.9729314465         -0.2974
C204       C    0.9511154310    0.4688574887    0.0346484649         -0.1863
C205       C    0.0024527731    0.4819476891    0.0601764426         -0.2976
C206       C    0.0504763360    0.5059227571    0.0241614362         -0.2975
C207       C    0.9033559861    0.4463354551    0.0709337013         -0.1124
C208       C    0.8521034162    0.4330637600    0.0451020497         -0.3265
C209       C    0.8044582292    0.4118333211    0.0815345989         -0.2972
C210       C    0.8081452354    0.4041213103    0.1438668690         -0.2195
C211       C    0.8593076276    0.4167515216    0.1695862844         -0.3071
C212       C    0.9069105826    0.4377123845    0.1330577930         -0.3144
H214       H    0.1372490418    0.5878991355    0.7845757193         -0.0895
H215       H    0.0532019358    0.5412889429    0.8463099183         -0.1175
H216       H    0.1496591339    0.5491517659    0.9982872570         -0.1181
H217       H    0.2337794893    0.5961961346    0.9366392005         -0.0906
H218       H    0.9931129128    0.5106129845    0.8913102853         -0.1215
H219       H    0.9094844925    0.4688930087    0.9540148663         -0.1215
H220       H    0.0049426256    0.4741667387    0.1058091468         -0.1208
H221       H    0.0885620001    0.5158656645    0.0430606840         -0.1208
H222       H    0.8494659918    0.4390933000    0.9990355945         -0.1175
H223       H    0.7665492467    0.4021150590    0.0624480563         -0.0895
H225       H    0.8619671860    0.4106791221    0.2156298139         -0.0907
H226       H    0.9447843775    0.4471397165    0.1520304468         -0.1182
C165       C    0.1917885222    0.5959449264    0.6438668679         -0.2197
C166       C    0.1767884320    0.5471422985    0.6112831126         -0.2969
C167       C    0.1271347748    0.5215424998    0.5780261121         -0.3267
C168       C    0.0924405912    0.5447232497    0.5774751670         -0.1122
C169       C    0.1069166946    0.5929864248    0.6109479556         -0.3145
C170       C    0.1567072395    0.6187117138    0.6440171217          -0.307
C171       C    0.0435966145    0.5198814861    0.5428478992         -0.1863
C172       C    0.0300477809    0.4724461953    0.5082548487         -0.2974
C173       C    0.9820468131    0.4484139360    0.4722623846         -0.2974
C174       C    0.9476603039    0.4719127694    0.4708457596         -0.1863
C175       C    0.9607289532    0.5188429939    0.5061713286         -0.2976
C176       C    0.0087271476    0.5428404944    0.5422266744         -0.2975
C177       C    0.9005654032    0.4488030968    0.4335037889         -0.1124
C178       C    0.8875487174    0.4017203893    0.3985340648         -0.3265
C179       C    0.8412615488    0.3792890900    0.3599420428         -0.2972
C180       C    0.8081452368    0.4041213106    0.3561331325         -0.2195
C181       C    0.8207683364    0.4508308306    0.3916975622         -0.3071
C182       C    0.8669116263    0.4730824375    0.4305471616         -0.3144
H184       H    0.2025969961    0.5301136126    0.6115102291         -0.0895
H185       H    0.1161782919    0.4856005641    0.5535472645         -0.1175
H186       H    0.0809758731    0.6098866124    0.6109304792         -0.1181
H187       H    0.1676601238    0.6546637937    0.6685015170         -0.0906
H188       H    0.0557100388    0.4552599497    0.5091499372         -0.1215
H189       H    0.9721511868    0.4134784571    0.4463347326         -0.1215
H190       H    0.9350286458    0.5359898798    0.5053656388         -0.1208
H191       H    0.0185915088    0.5777387765    0.5682039626         -0.1208
H192       H    0.9122660573    0.3835608122    0.4011019230         -0.1175
H193       H    0.8316882693    0.3445142921    0.3339701342         -0.0895
H195       H    0.7960410260    0.4689759375    0.3892036813         -0.0907
H196       H    0.8763378408    0.5076652356    0.4568108624         -0.1182
C135       C    0.4040556632    0.8082109120    0.6438659829         -0.2197
C136       C    0.4226576141    0.8604000774    0.6704194465         -0.2969
C137       C    0.4494446819    0.9085916935    0.6348375349         -0.3267
C138       C    0.4577120337    0.9045606851    0.5727066663         -0.1122
C139       C    0.4400166035    0.8524435002    0.5463234645         -0.3145
C140       C    0.4130178138    0.8042211820    0.5818863957          -0.307
C141       C    0.4831356238    0.9526881611    0.5369400306         -0.1863
C142       C    0.4994682310    0.0045367984    0.5632504573         -0.2974
C143       C    0.5234871677    0.0525541307    0.5272840126         -0.2974
C144       C    0.5310841800    0.0486492150    0.4649772314         -0.1863
C145       C    0.5155545357    0.9969139328    0.4388159989         -0.2976
C146       C    0.4915788249    0.9488889478    0.4748287457         -0.2975
C147       C    0.5536155314    0.0964562176    0.4287676280         -0.1124
C148       C    0.5693307316    0.1480988106    0.4552199442         -0.3265
C149       C    0.5905856374    0.1958345461    0.4189314008         -0.2972
C150       C    0.5958780959    0.1918553251    0.3561340175         -0.2195
C151       C    0.5807993765    0.1402820995    0.3297608408         -0.3071
C152       C    0.5598137756    0.0925798944    0.3661314878         -0.3144
H154       H    0.4163322871    0.8633496442    0.7163770921         -0.0895
H155       H    0.4629009367    0.9472370149    0.6543888473         -0.1175
H156       H    0.4465611984    0.8495144174    0.5003977191         -0.1181
H157       H    0.3995609787    0.7655676821    0.5623219036         -0.0906
H158       H    0.4935671570    0.0073042661    0.6093538514         -0.1215
H159       H    0.5352892368    0.0909362071    0.5466548664         -0.1215
H160       H    0.5215314594    0.9941395812    0.3927305511         -0.1208
H161       H    0.4798318630    0.9105160816    0.4554724569         -0.1208
H162       H    0.5650924695    0.1509621720    0.5016460067         -0.1175
H163       H    0.6021123979    0.2340354283    0.4384824559         -0.0895
H165       H    0.5850797038    0.1373947283    0.2833547207         -0.0907
H166       H    0.5485776428    0.0544046271    0.3466790974         -0.1182
C105       C    0.4040556642    0.8082109144    0.8561340185         -0.2197
C106       C    0.3851586483    0.8063649321    0.9155050400         -0.2969
C107       C    0.4113131798    0.8536450778    0.9525363334         -0.3267
C108       C    0.4564477748    0.9027389176    0.9301902368         -0.1122
C109       C    0.4760218531    0.9043262361    0.8711747304         -0.3145
C110       C    0.4497023529    0.8570827586    0.8340552878          -0.307
C111       C    0.4815254773    0.9503679773    0.9667494324         -0.1863
C112       C    0.4608877191    0.9489431695    0.0251522627         -0.2974
C113       C    0.4848784195    0.9969198137    0.0611834066         -0.2974
C114       C    0.5294731908    0.0463278165    0.0387141608         -0.1863
C115       C    0.5506927050    0.0475472253    0.9806690062         -0.2976
C116       C    0.5267162262    0.9995211338    0.9446580201         -0.2975
C117       C    0.5523668390    0.0946568803    0.0740936027         -0.1124
C118       C    0.5311772926    0.0931205834    0.1322041856         -0.3265
C119       C    0.5530122589    0.1416921725    0.1671635877         -0.2972
C120       C    0.5958780948    0.1918553227    0.1438659819         -0.2195
C121       C    0.6175594233    0.1932524794    0.0860078199         -0.3071
C122       C    0.5959025649    0.1445830081    0.0511752813         -0.3144
H124       H    0.3515989821    0.7700704436    0.9319516894         -0.0895
H125       H    0.3971028975    0.8524235565    0.9963796463         -0.1175
H126       H    0.5097495329    0.9405673523    0.8548136238         -0.1161
H127       H    0.4639229313    0.8583117741    0.7902002327         -0.0906
H128       H    0.4276886075    0.9123747940    0.0415991209         -0.1215
H129       H    0.4694069181    0.9960013032    0.1043067413         -0.1215
H130       H    0.5839512269    0.0840850282    0.9642418704         -0.1208
H131       H    0.5422245830    0.0004225541    0.9015619423         -0.1208
H132       H    0.4992278297    0.0560527428    0.1492750908         -0.1175
H133       H    0.5372604998    0.1405853362    0.2101180613         -0.0895
H135       H    0.6495437000    0.2302858611    0.0689335881         -0.0907
H136       H    0.6118446909    0.1455709856    0.0083518790         -0.1182
C75        C    0.5958762598    0.4041219924    0.1438654172         -0.2197
C76        C    0.5988054857    0.4026747893    0.0804698568         -0.2969
C77        C    0.5720965834    0.4239528626    0.0445633832         -0.3267
C78        C    0.5423657428    0.4465794905    0.0721007438         -0.1122
C79        C    0.5385688981    0.4471288310    0.1355040223         -0.3145
C80        C    0.5654835203    0.4260415484    0.1714165945          -0.307
C81        C    0.5169964327    0.4691958009    0.0361093684         -0.1863
C82        C    0.5221148707    0.4698078521    0.9728055854         -0.2974
C83        C    0.4981109964    0.4937825197    0.9367782753         -0.2974
C84        C    0.4690525065    0.5172023282    0.9641313477         -0.1863
C85        C    0.4631780257    0.5158243037    0.0273882890         -0.2976
C86        C    0.4871499728    0.4917803707    0.0634146961         -0.2975
C87        C    0.4464599553    0.5425783773    0.9281795125         -0.1124
C88        C    0.4522115673    0.5435761450    0.8649517545         -0.3265
C89        C    0.4309005541    0.5701491168    0.8288997368         -0.2972
C90        C    0.4040574992    0.5959442447    0.8561345832         -0.2195
C91        C    0.3976885858    0.5943481406    0.9193613403         -0.3071
C92        C    0.4187552234    0.5674988234    0.9553913074         -0.3144
H94        H    0.6210068579    0.3861164834    0.0601019956         -0.0895
H95        H    0.5745602014    0.4232379447    0.9976075660         -0.1175
H96        H    0.5161554708    0.4634766112    0.1558736452         -0.1181
H97        H    0.5630141023    0.4267592498    0.2183858866         -0.0906
H98        H    0.5438750624    0.4526707222    0.9526541689         -0.1215
H99        H    0.5021653886    0.4945617607    0.8899069485         -0.1215
H100       H    0.4413430567    0.5328769530    0.0475531693         -0.1208
H101       H    0.4830454669    0.4909471065    0.1102797259         -0.1208
H102       H    0.4723741926    0.5247658895    0.8448503858         -0.1175
H103       H    0.4352517093    0.5709875634    0.7821189781         -0.0895
H105       H    0.3774824334    0.6130946979    0.9394887558         -0.0907
H106       H    0.4141408292    0.5663507904    0.0021563015         -0.1182
C45        C    0.5958762590    0.4041219921    0.3561345838         -0.2197
C46        C    0.5977077801    0.4532029848    0.3374349382         -0.2969
C47        C    0.5709787477    0.4754076695    0.3718359087         -0.3267
C48        C    0.5423254490    0.4484342235    0.4248857970         -0.1122
C49        C    0.5396190673    0.3987887170    0.4430361193         -0.3145
C50        C    0.5665553061    0.3767064006    0.4087402187          -0.307
C51        C    0.5169451954    0.4715542810    0.4600587140         -0.1863
C52        C    0.5209826652    0.5219241258    0.4425189947         -0.2974
C53        C    0.4969779556    0.5459372591    0.4784838080         -0.2974
C54        C    0.4690012632    0.5195611031    0.5320362557         -0.1863
C55        C    0.4642008224    0.4687441958    0.5491046696         -0.2976
C56        C    0.4881727256    0.4447022727    0.5130749969         -0.2975
C57        C    0.4464201453    0.5444108815    0.5688431441         -0.1124
C58        C    0.4510930121    0.5950641149    0.5513936561         -0.3265
C59        C    0.4298005425    0.6207835231    0.5888324930         -0.2972
C60        C    0.4040575000    0.5959442450    0.6438654166         -0.2195
C61        C    0.3987627346    0.5449042815    0.6609721003         -0.3071
C62        C    0.4198080040    0.5190385513    0.6233440596         -0.3144
H64        H    0.6191132741    0.4732795552    0.2982806322         -0.0895
H65        H    0.5726326788    0.5119632614    0.3582368195         -0.1175
H66        H    0.5179998923    0.3785764655    0.4820670605         -0.1181
H67        H    0.5648958926    0.3401389721    0.4223495872         -0.0906
H68        H    0.5419448117    0.5415216265    0.4029861693         -0.1215
H69        H    0.5002350812    0.5834152862    0.4657291308         -0.1215
H70        H    0.4431633701    0.4490865432    0.5885845035         -0.1208
H71        H    0.4848649209    0.4071962437    0.5257936933         -0.1208
H72        H    0.4704445252    0.6135899682    0.5108335369         -0.1175
H73        H    0.4333543916    0.6583225799    0.5759842838         -0.0895
H75        H    0.3793674503    0.5263259650    0.7014879188         -0.0907
H76        H    0.4159878104    0.4813328592    0.6359757749         -0.1182
loop_
_geom_bond_atom_site_label_1
_geom_bond_atom_site_label_2
_geom_bond_distance
_geom_bond_site_symmetry_2
_ccdc_geom_bond_type
O1         Al16 1.762       .   S
O1           C7 1.272       .   A
O2         Al17 1.762       .   S
O2           C8 1.272       .   A
O3         Al18 1.762       .   S
O3           C9 1.272       .   A
O4         Al18 1.762       .   S
O4           C7 1.272       .   A
O5         Al17 1.762       .   S
O5           C9 1.272       .   A
O6         Al16 1.762       .   S
O6           C8 1.272       .   A
C7         C195 1.540       .   S
C8         C105 1.540       .   S
C9          C90 1.540       .   S
O10        Al16 1.762       .   S
O10         C20 1.272       .   A
O11        Al17 1.762       .   S
O11         C21 1.272       .   A
O12        Al18 1.762       .   S
O12         C22 1.272       .   A
O13        Al18 1.762       .   S
O13         C20 1.272       .   A
O14        Al17 1.762       .   S
O14         C22 1.272       .   A
O15        Al16 1.762       .   S
O15         C21 1.272       .   A
Al16        O19 1.735       .   S
Al17        O19 1.735       .   S
Al18        O19 1.735       .   S
C20        C165 1.540       .   S
C21        C135 1.540       .   S
C22         C60 1.540       .   S
O23        Al38 1.762       .   S
O23         C29 1.272       .   A
O24        Al39 1.762       .   S
O24         C30 1.272       .   A
O25        Al40 1.762       .   S
O25         C31 1.272       .   A
O26        Al40 1.762       .   S
O26         C29 1.272       .   A
O27        Al39 1.762       .   S
O27         C31 1.272       .   A
O28        Al38 1.762       .   S
O28         C30 1.272       .   A
C29        C180 1.540   1_655   S
C30        C150 1.540   1_545   S
C31         C45 1.540       .   S
O32        Al38 1.762       .   S
O32         C42 1.272       .   A
O33        Al39 1.762       .   S
O33         C43 1.272       .   A
O34        Al40 1.762       .   S
O34         C44 1.272       .   A
O35        Al40 1.762       .   S
O35         C42 1.272       .   A
O36        Al39 1.762       .   S
O36         C44 1.272       .   A
O37        Al38 1.762       .   S
O37         C43 1.272       .   A
Al38        O41 1.735       .   S
Al39        O41 1.735       .   S
Al40        O41 1.735       .   S
C42        C210 1.540   1_654   S
C43        C120 1.540   1_544   S
C44         C75 1.540   1_554   S
C196       C195 1.539       .   A
C195       C200 1.540       .   A
H214       C196 1.140       .   S
C197       C196 1.540       .   A
H215       C197 1.140       .   S
C197       C198 1.540       .   A
C201       C198 1.539       .   S
C199       C198 1.540       .   A
H216       C199 1.141       .   S
C200       C199 1.541       .   A
H217       C200 1.141       .   S
C206       C201 1.539       .   A
C202       C201 1.540       .   A
H218       C202 1.140       .   S
C202       C203 1.539       .   A
H219       C203 1.140       .   S
C204       C203 1.540       .   A
C207       C204 1.539       .   S
C205       C204 1.540       .   A
H220       C205 1.140       .   S
C206       C205 1.540       .   A
H221       C206 1.140       .   S
C212       C207 1.540       .   A
C207       C208 1.539       .   A
H222       C208 1.140       .   S
C209       C208 1.540       .   A
H223       C209 1.139       .   S
C210       C209 1.540       .   A
C211       C210 1.541       .   A
C212       C211 1.541       .   A
C211       H225 1.139       .   S
C212       H226 1.139       .   S
C166       C165 1.539       .   A
C165       C170 1.540       .   A
H184       C166 1.140       .   S
C167       C166 1.540       .   A
H185       C167 1.140       .   S
C167       C168 1.540       .   A
C171       C168 1.539       .   S
C169       C168 1.540       .   A
H186       C169 1.141       .   S
C170       C169 1.541       .   A
H187       C170 1.141       .   S
C176       C171 1.539       .   A
C172       C171 1.540       .   A
H188       C172 1.140       .   S
C172       C173 1.539       .   A
H189       C173 1.140       .   S
C174       C173 1.540       .   A
C177       C174 1.539       .   S
C175       C174 1.540       .   A
H190       C175 1.140       .   S
C176       C175 1.540       .   A
H191       C176 1.140       .   S
C182       C177 1.540       .   A
C177       C178 1.539       .   A
H192       C178 1.140       .   S
C179       C178 1.540       .   A
H193       C179 1.139       .   S
C180       C179 1.540       .   A
C181       C180 1.541       .   A
C182       C181 1.541       .   A
C181       H195 1.139       .   S
C182       H196 1.139       .   S
C136       C135 1.539       .   A
C135       C140 1.540       .   A
H154       C136 1.140       .   S
C137       C136 1.540       .   A
H155       C137 1.140       .   S
C137       C138 1.540       .   A
C141       C138 1.539       .   S
C139       C138 1.540       .   A
H156       C139 1.141       .   S
C140       C139 1.541       .   A
H157       C140 1.141       .   S
C146       C141 1.539       .   A
C142       C141 1.540       .   A
H158       C142 1.140       .   S
C142       C143 1.539       .   A
H159       C143 1.140       .   S
C144       C143 1.540       .   A
C147       C144 1.539       .   S
C145       C144 1.540       .   A
H160       C145 1.140       .   S
C146       C145 1.540       .   A
H161       C146 1.140       .   S
C152       C147 1.540       .   A
C147       C148 1.539       .   A
H162       C148 1.140       .   S
C149       C148 1.540       .   A
H163       C149 1.139       .   S
C150       C149 1.540       .   A
C151       C150 1.541       .   A
C152       C151 1.541       .   A
C151       H165 1.139       .   S
C152       H166 1.139       .   S
C106       C105 1.539       .   A
C105       C110 1.540       .   A
H124       C106 1.140       .   S
C107       C106 1.540       .   A
H125       C107 1.140       .   S
C107       C108 1.540       .   A
C111       C108 1.539       .   S
C109       C108 1.540       .   A
H126       C109 1.141       .   S
C110       C109 1.541       .   A
H127       C110 1.141       .   S
C116       C111 1.539       .   A
C112       C111 1.540       .   A
H128       C112 1.140       .   S
C112       C113 1.539       .   A
H129       C113 1.140       .   S
C114       C113 1.540       .   A
C117       C114 1.539       .   S
C115       C114 1.540       .   A
H130       C115 1.140       .   S
C116       C115 1.540       .   A
H131       C116 1.140       .   S
C122       C117 1.540       .   A
C117       C118 1.539       .   A
H132       C118 1.140       .   S
C119       C118 1.540       .   A
H133       C119 1.139       .   S
C120       C119 1.540       .   A
C121       C120 1.541       .   A
C122       C121 1.541       .   A
C121       H135 1.139       .   S
C122       H136 1.139       .   S
C76         C75 1.539       .   A
C75         C80 1.540       .   A
H94         C76 1.140       .   S
C77         C76 1.540       .   A
H95         C77 1.140       .   S
C77         C78 1.540       .   A
C81         C78 1.539       .   S
C79         C78 1.540       .   A
H96         C79 1.141       .   S
C80         C79 1.541       .   A
H97         C80 1.141       .   S
C86         C81 1.539       .   A
C82         C81 1.540       .   A
H98         C82 1.140       .   S
C82         C83 1.539       .   A
H99         C83 1.140       .   S
C84         C83 1.540       .   A
C87         C84 1.539       .   S
C85         C84 1.540       .   A
H100        C85 1.140       .   S
C86         C85 1.540       .   A
H101        C86 1.140       .   S
C92         C87 1.540       .   A
C87         C88 1.539       .   A
H102        C88 1.140       .   S
C89         C88 1.540       .   A
H103        C89 1.139       .   S
C90         C89 1.540       .   A
C91         C90 1.541       .   A
C92         C91 1.541       .   A
C91        H105 1.139       .   S
C92        H106 1.139       .   S
C46         C45 1.539       .   A
C45         C50 1.540       .   A
H64         C46 1.140       .   S
C47         C46 1.540       .   A
H65         C47 1.140       .   S
C47         C48 1.540       .   A
C51         C48 1.539       .   S
C49         C48 1.540       .   A
H66         C49 1.141       .   S
C50         C49 1.541       .   A
H67         C50 1.141       .   S
C56         C51 1.539       .   A
C52         C51 1.540       .   A
H68         C52 1.140       .   S
C52         C53 1.539       .   A
H69         C53 1.140       .   S
C54         C53 1.540       .   A
C57         C54 1.539       .   S
C55         C54 1.540       .   A
H70         C55 1.140       .   S
C56         C55 1.540       .   A
H71         C56 1.140       .   S
C62         C57 1.540       .   A
C57         C58 1.539       .   A
H72         C58 1.140       .   S
C59         C58 1.540       .   A
H73         C59 1.139       .   S
C60         C59 1.540       .   A
C61         C60 1.541       .   A
C62         C61 1.541       .   A
C61         H75 1.139       .   S
C62         H76 1.139       .   S
