data_acs_v1-6c_Al_1_1-1B_2CN_Ch
_audit_creation_date              2021-04-19
_audit_creation_method            'tobacco_3.0'
_symmetry_space_group_name_H-M    'P1'
_symmetry_Int_Tables_number       1
_symmetry_cell_setting            triclinic
loop_
_symmetry_equiv_pos_as_xyz
  x,y,z
_cell_length_a                    17.00226101921291
_cell_length_b                    17.002261096857094
_cell_length_c                    13.482902403062221
_cell_angle_alpha                 90.0000007462356
_cell_angle_beta                  89.99999978914953
_cell_angle_gamma                 120.00086758135927
loop_
_atom_site_label
_atom_site_type_symbol
_atom_site_fract_x
_atom_site_fract_y
_atom_site_fract_z
_atom_site_charge
O1         O    0.3372325738    0.8053981569    0.6570155707          0.6007
O2         O    0.1946050636    0.5319374320    0.6570155688          0.6007
O3         O    0.4680555706    0.6627712007    0.6570155693          0.6007
O4         O    0.4680642674    0.8054008939    0.6570155704          0.6007
O5         O    0.3372252155    0.5319388084    0.6570155685          0.6007
O6         O    0.1946037250    0.6627670873    0.6570155699          0.6007
C7         C    0.4172229679    0.8345488070    0.6241146428          0.6007
C8         C    0.1654551123    0.5827770311    0.6241146414          0.6007
C9         C    0.4172219192    0.5827741596    0.6241146408          0.6007
O10        O    0.3372325741    0.8053981580    0.8429844315          0.6007
O11        O    0.1946050639    0.5319374331    0.8429844296          0.6007
O12        O    0.4680555709    0.6627712018    0.8429844301          0.6007
O13        O    0.4680642677    0.8054008950    0.8429844312          0.6007
O14        O    0.3372252158    0.5319388096    0.8429844293          0.6007
O15        O    0.1946037253    0.6627670884    0.8429844307          0.6007
Al16      Al    0.2743949536    0.7255944517    0.7499925838             1.0
Al17      Al    0.2743932162    0.5488920913    0.7499925824             1.0
Al18      Al    0.4511000670    0.7256016936    0.7499925834             1.0
O19        O    0.3332983428    0.6666938151    0.7499925832          0.6007
C20        C    0.4172229683    0.8345488085    0.8758853595          0.6007
C21        C    0.1654551127    0.5827770326    0.8758853580          0.6007
C22        C    0.4172219196    0.5827741611    0.8758853574          0.6007
O23        O    0.6627017863    0.1946674984    0.1570155697          0.6007
O24        O    0.8053292965    0.4681282233    0.1570155715          0.6007
O25        O    0.5318787895    0.3372944546    0.1570155711          0.6007
O26        O    0.5318700926    0.1946647615    0.1570155700          0.6007
O27        O    0.6627091446    0.4681268469    0.1570155719          0.6007
O28        O    0.8053306351    0.3372985680    0.1570155705          0.6007
C29        C    0.5827113921    0.1655168479    0.1241146417          0.6007
C30        C    0.8344792477    0.4172886238    0.1241146431          0.6007
C31        C    0.5827124408    0.4172914953    0.1241146437          0.6007
O32        O    0.6627017866    0.1946674996    0.3429844305          0.6007
O33        O    0.8053292968    0.4681282244    0.3429844323          0.6007
O34        O    0.5318787897    0.3372944558    0.3429844319          0.6007
O35        O    0.5318700929    0.1946647626    0.3429844308          0.6007
O36        O    0.6627091448    0.4681268480    0.3429844326          0.6007
O37        O    0.8053306353    0.3372985692    0.3429844313          0.6007
Al38      Al    0.7255394067    0.2744712048    0.2499925838             1.0
Al39      Al    0.7255411442    0.4511735651    0.2499925852             1.0
Al40      Al    0.5488342934    0.2744639628    0.2499925842             1.0
O41        O    0.6666360176    0.3333718413    0.2499925844          0.6007
C42        C    0.5827113924    0.1655168495    0.3758853583          0.6007
C43        C    0.8344792481    0.4172886253    0.3758853598          0.6007
C44        C    0.5827124412    0.4172914969    0.3758853603          0.6007
C105       C    0.0792387826    0.5396687435    0.9405469248         -0.3979
C106       C    0.0022273555    0.4589775936    0.9121127515         -0.5166
C107       C    0.9228741947    0.4183661267    0.9697185179         -0.3755
C108       C    0.9206955778    0.4603969129    0.0594530764         -0.3987
C109       C    0.9977164804    0.5410935011    0.0878766584          -0.516
C110       C    0.0770601657    0.5816995298    0.0302814832         -0.3767
H111       H    0.0046998899    0.4274031286    0.8432004260         -0.2469
H112       H    0.9952288974    0.5726697417    0.1567946803         -0.2469
C113       C    0.1512209048    0.6646453989    0.0683390495         -0.0304
C114       C    0.8487078825    0.3354274715    0.9316560567         -0.0313
N115       N    0.2066170858    0.7310032619    0.1057695807         -0.8338
N116       N    0.7932990582    0.2690887414    0.8942354868         -0.8338
C93        C    0.0792387831    0.5396687431    0.5594530761         -0.3979
C94        C    0.9932761644    0.5036809561    0.6021223834         -0.5166
C95        C    0.9137245683    0.4640604970    0.5448321891         -0.3755
C96        C    0.9206955772    0.4603969133    0.4405469250         -0.3987
C97        C    0.0066681224    0.4963878867    0.3978874920 -0.5156000000000001
C98        C    0.0862097921    0.5360051595    0.4551678121         -0.3767
H99        H    0.9887878922    0.5068696252    0.6821045218         -0.2469
H100       H    0.0111448316    0.4931835858    0.3178941140         -0.2469
C101       C    0.1701046547    0.5703376065    0.4016300105         -0.0304
C102       C    0.8298280691    0.4297156045    0.5983686253         -0.0313
N103       N    0.2337046343    0.5957246800    0.3511529290         -0.8338
N104       N    0.7662240161    0.4043048647    0.6488221169         -0.8338
C81        C    0.5396037355    0.0793038296    0.4405459705         -0.3979
C82        C    0.4557586969    0.0490630556    0.4864836417         -0.5166
C83        C    0.4150767893    0.9707457873    0.5457366200         -0.3755
C84        C    0.4603306248    0.9207618268    0.5594540307         -0.3987
C85        C    0.5441809051    0.9510149929    0.5135104058          -0.516
C86        C    0.5848575711    0.0293198692    0.4542633811         -0.3767
H87        H    0.4217307152    0.0879270604    0.4754388178         -0.2469
H88        H    0.5782101118    0.9121441038    0.5245739088         -0.2469
C89        C    0.6712306796    0.0526552241    0.4115015166         -0.0304
C90        C    0.3287101474    0.9474159401    0.5885112101         -0.0313
N91        N    0.7404781449    0.0651982901    0.3807896335         -0.8338
N92        N    0.2594811073    0.9348707225    0.6192497383         -0.8338
C69        C    0.5396037362    0.0793038306    0.0594540314         -0.3979
C70        C    0.5046706191    0.9934121795    0.1020085937         -0.5166
C71        C    0.4650717389    0.9138626655    0.0447150464         -0.3755
C72        C    0.4603306242    0.9207618259    0.9405459697         -0.3987
C73        C    0.4952709128    0.0066636731    0.8980008527          -0.516
C74        C    0.5348626215    0.0862029909    0.9552849548         -0.3767
H75        H    0.5086961842    0.9889797216    0.1819005048         -0.2469
H76        H    0.4912495068    0.0110859085    0.8180955707         -0.2469
C77        C    0.5680757022    0.1700226218    0.9018688438         -0.0304
C78        C    0.4318699888    0.8300430083    0.0981272318         -0.0313
N79        N    0.5925054174    0.2335583090    0.8514957340         -0.8338
N80        N    0.4074579280    0.7665060465    0.1484723020         -0.8338
C57        C    0.5396034659    0.4603984239    0.0594528734         -0.3979
C58        C    0.4717870263    0.4754116568    0.0971428210         -0.5166
C59        C    0.4314611354    0.5145672526    0.0397428180         -0.3755
C60        C    0.4603308945    0.5396672325    0.9405471277         -0.3987
C61        C    0.5281503154    0.5246463948    0.9028660053          -0.516
C62        C    0.5684732250    0.4854984038    0.9602571832         -0.3767
H63        H    0.4502174745    0.4558915028    0.1732474223         -0.2469
H64        H    0.5497075830    0.5441629570    0.8267456001         -0.2469
C65        C    0.6374058570    0.4739374439    0.9121253999         -0.0304
C66        C    0.3625192005    0.5261170159    0.0878676225         -0.0313
N67        N    0.6919597344    0.4677606253    0.8662089405         -0.8338
N68        N    0.3079531737    0.5322801866    0.1337516324         -0.8338
C45        C    0.5396034669    0.4603984238    0.4405471279         -0.3979
C46        C    0.5906888355    0.5499924727    0.4733388056         -0.5166
C47        C    0.5529957783    0.5907995066    0.5322994783         -0.3755
C48        C    0.4603308934    0.5396672326    0.5594528733         -0.3987
C49        C    0.4092529858    0.4500683887    0.5266550259          -0.516
C50        C    0.4469385820    0.4092661499    0.4677005228         -0.3767
H51        H    0.6616242130    0.5884957679    0.4520685067         -0.2469
H52        H    0.3383113968    0.4115653108    0.5479447283         -0.2469
C53        C    0.3866410770    0.3166459596    0.4392283399         -0.0304
C54        C    0.6132945328    0.6834151191    0.5607848951         -0.0313
N55        N    0.3322453281    0.2421308026    0.4205625458         -0.8338
N56        N    0.6676740381    0.7579140602    0.5794807119         -0.8338
loop_
_geom_bond_atom_site_label_1
_geom_bond_atom_site_label_2
_geom_bond_distance
_geom_bond_site_symmetry_2
_ccdc_geom_bond_type
O1         Al16 1.762       .   S
O1           C7 1.272       .   A
O2         Al17 1.762       .   S
O2           C8 1.272       .   A
O3         Al18 1.762       .   S
O3           C9 1.272       .   A
O4         Al18 1.762       .   S
O4           C7 1.272       .   A
O5         Al17 1.762       .   S
O5           C9 1.272       .   A
O6         Al16 1.762       .   S
O6           C8 1.272       .   A
C7          C84 1.540       .   S
C8          C93 1.540       .   S
C9          C48 1.540       .   S
O10        Al16 1.762       .   S
O10         C20 1.272       .   A
O11        Al17 1.762       .   S
O11         C21 1.272       .   A
O12        Al18 1.762       .   S
O12         C22 1.272       .   A
O13        Al18 1.762       .   S
O13         C20 1.272       .   A
O14        Al17 1.762       .   S
O14         C22 1.272       .   A
O15        Al16 1.762       .   S
O15         C21 1.272       .   A
Al16        O19 1.735       .   S
Al17        O19 1.735       .   S
Al18        O19 1.735       .   S
C20         C72 1.540       .   S
C21        C105 1.540       .   S
C22         C60 1.540       .   S
O23        Al38 1.762       .   S
O23         C29 1.272       .   A
O24        Al39 1.762       .   S
O24         C30 1.272       .   A
O25        Al40 1.762       .   S
O25         C31 1.272       .   A
O26        Al40 1.762       .   S
O26         C29 1.272       .   A
O27        Al39 1.762       .   S
O27         C31 1.272       .   A
O28        Al38 1.762       .   S
O28         C30 1.272       .   A
C29         C69 1.540   1_544   S
C30        C108 1.540   1_654   S
C31         C57 1.540   1_554   S
O32        Al38 1.762       .   S
O32         C42 1.272       .   A
O33        Al39 1.762       .   S
O33         C43 1.272       .   A
O34        Al40 1.762       .   S
O34         C44 1.272       .   A
O35        Al40 1.762       .   S
O35         C42 1.272       .   A
O36        Al39 1.762       .   S
O36         C44 1.272       .   A
O37        Al38 1.762       .   S
O37         C43 1.272       .   A
Al38        O41 1.735       .   S
Al39        O41 1.735       .   S
Al40        O41 1.735       .   S
C42         C81 1.540   1_545   S
C43         C96 1.540   1_655   S
C44         C45 1.540       .   S
C105       C106 1.395       .   A
C105       C110 1.415       .   A
C106       C107 1.403       .   A
C106       H111 1.084       .   S
C107       C108 1.415       .   A
C107       C114 1.437       .   S
C108       C109 1.395       .   A
C109       C110 1.403       .   A
C109       H112 1.084       .   S
C110       C113 1.437       .   S
C113       N115 1.163       .   T
C114       N116 1.163       .   T
C93         C94 1.395       .   A
C93         C98 1.415       .   A
C94         C95 1.403       .   A
C94         H99 1.084       .   S
C95         C96 1.415       .   A
C95        C102 1.437       .   S
C96         C97 1.395       .   A
C97         C98 1.403       .   A
C97        H100 1.084       .   S
C98        C101 1.437       .   S
C101       N103 1.163       .   T
C102       N104 1.163       .   T
C81         C82 1.395       .   A
C81         C86 1.415       .   A
C82         C83 1.403       .   A
C82         H87 1.084       .   S
C83         C84 1.415       .   A
C83         C90 1.437       .   S
C84         C85 1.395       .   A
C85         C86 1.403       .   A
C85         H88 1.084       .   S
C86         C89 1.437       .   S
C89         N91 1.163       .   T
C90         N92 1.163       .   T
C69         C70 1.395       .   A
C69         C74 1.415       .   A
C70         C71 1.403       .   A
C70         H75 1.084       .   S
C71         C72 1.415       .   A
C71         C78 1.437       .   S
C72         C73 1.395       .   A
C73         C74 1.403       .   A
C73         H76 1.084       .   S
C74         C77 1.437       .   S
C77         N79 1.163       .   T
C78         N80 1.163       .   T
C57         C58 1.395       .   A
C57         C62 1.415       .   A
C58         C59 1.403       .   A
C58         H63 1.084       .   S
C59         C60 1.415       .   A
C59         C66 1.437       .   S
C60         C61 1.395       .   A
C61         C62 1.403       .   A
C61         H64 1.084       .   S
C62         C65 1.437       .   S
C65         N67 1.163       .   T
C66         N68 1.163       .   T
C45         C46 1.395       .   A
C45         C50 1.415       .   A
C46         C47 1.403       .   A
C46         H51 1.084       .   S
C47         C48 1.415       .   A
C47         C54 1.437       .   S
C48         C49 1.395       .   A
C49         C50 1.403       .   A
C49         H52 1.084       .   S
C50         C53 1.437       .   S
C53         N55 1.163       .   T
C54         N56 1.163       .   T
