data_acs_v1-6c_Al_1_Ch_1-1B_2SH_Ch
_audit_creation_date              2021-04-19
_audit_creation_method            'tobacco_3.0'
_symmetry_space_group_name_H-M    'P1'
_symmetry_Int_Tables_number       1
_symmetry_cell_setting            triclinic
loop_
_symmetry_equiv_pos_as_xyz
  x,y,z
_cell_length_a                    17.063804833906055
_cell_length_b                    17.012539380818467
_cell_length_c                    13.989327405921141
_cell_angle_alpha                 89.53573883453495
_cell_angle_beta                  90.28787143332121
_cell_angle_gamma                 119.5580122653154
loop_
_atom_site_label
_atom_site_type_symbol
_atom_site_fract_x
_atom_site_fract_y
_atom_site_fract_z
_atom_site_charge
O1         O    0.3336415033    0.8039188713    0.8527383276         -0.8301
C2         C    0.4130847685    0.5842275026    0.6199974469          0.9634
O3         O    0.4688557029    0.6487058914    0.6645267351         -0.7213
O4         O    0.4701493446    0.7999337488    0.6474405601         -0.7572
Al5       Al    0.4574762701    0.7269824087    0.7550183827          1.4898
C6         C    0.4226701280    0.8343321096    0.6227771342           0.916
O7         O    0.2013315451    0.6663950110    0.6400393201         -0.8194
O8         O    0.1960605879    0.5325292332    0.8617149034          -0.755
Al9       Al    0.2731993237    0.7284532706    0.7460042521          1.9012
O10        O    0.1798554115    0.5270898804    0.6690923884         -0.7457
O11        O    0.3501147793    0.5266490803    0.8473746334         -0.7442
O12        O    0.3320562173    0.5292952735    0.6518349618         -0.8008
O13        O    0.4697144352    0.6652232587    0.8574626944         -0.7828
O14        O    0.3329685158    0.6651276535    0.7532069348         -1.1442
O15        O    0.4701841101    0.8202195131    0.8411906569         -0.7361
C16        C    0.4153519851    0.8384122220    0.8771877915          0.9711
C17        C    0.1644570304    0.5815754621    0.6241498016           0.935
Al18      Al    0.2723460750    0.5415894712    0.7573071154          1.5556
O19        O    0.3501004814    0.8191787747    0.6574374737         -0.7823
C20        C    0.4249407007    0.5812502789    0.8797257005          0.9767
C21        C    0.1592953873    0.5804024248    0.8761621253          0.9255
O22        O    0.1800961664    0.6535437534    0.8294117223         -0.8355
O23        O    0.8043150628    0.3341718962    0.1470124170         -0.8301
C24        C    0.5850849868    0.4137949102    0.3800173850          0.9634
O25        O    0.6495286237    0.4697717144    0.3352636195         -0.7213
O26        O    0.8001106742    0.4707228554    0.3520647377         -0.7572
Al27      Al    0.7276938255    0.4584152776    0.2446463627          1.4898
C28        C    0.8342138612    0.4229215099    0.3767522689           0.916
O29        O    0.6665452368    0.2010743080    0.3602156040         -0.8194
O30        O    0.5337570214    0.1966071646    0.1387990465          -0.755
Al31      Al    0.7287639252    0.2733714380    0.2540004928          1.9012
O32        O    0.5278271495    0.1798654072    0.3314627796         -0.7457
O33        O    0.5281760714    0.3512570693    0.1528638774         -0.7442
O34        O    0.5302883431    0.3326308622    0.3484331112         -0.8008
O35        O    0.6664618917    0.4710837368    0.1422942698         -0.7828
O36        O    0.6658307442    0.3335268036    0.2468050130         -1.1442
O37        O    0.8207976031    0.4712020365    0.1582757336         -0.7361
C38        C    0.8388962272    0.4162027796    0.1223463894          0.9711
C39        C    0.5819514276    0.1641826764    0.3763323512           0.935
Al40      Al    0.5426751971    0.2729198318    0.2430485188          1.5556
O41        O    0.8190608639    0.3501772601    0.3422550561         -0.7823
C42        C    0.5827902816    0.4263549389    0.1202714196          0.9767
C43        C    0.5814000778    0.1596337076    0.1243306274          0.9255
O44        O    0.6541740184    0.1802536256    0.1709058243         -0.8355
C105       C    0.0763650920    0.5379019231    0.9398830592         -0.0734
C106       C    0.0216942166    0.4439971423    0.9487645899         -0.1847
C107       C    0.9449185353    0.4018214153    0.0064583978          0.0986
C108       C    0.9218265225    0.4587032813    0.0586254555         -0.0726
C109       C    0.9762190436    0.5526032379    0.0493433809          -0.185
C110       C    0.0530945512    0.5947946094    0.9917855636          0.0989
S111       S    0.8894418099    0.2816634044    0.0008781837         -0.3346
S112       S    0.1064991501    0.7149509618    0.9943494101         -0.3347
H113       H    0.1772366738    0.7334698844    0.9381971343           0.279
H114       H    0.8243711487    0.2631333195    0.0652643955          0.2789
H115       H    0.0414113981    0.4027251651    0.9077061044          0.1849
H116       H    0.9562376658    0.5938882008    0.0899979969          0.1849
C93        C    0.0773595588    0.5397324827    0.5589018219         -0.0734
C94        C    0.0431077880    0.5926713964    0.5194426925         -0.1847
C95        C    0.9664740181    0.5587988016    0.4613311546          0.0986
C96        C    0.9213113328    0.4647644892    0.4420002485         -0.0732
C97        C    0.9552814672    0.4117458338    0.4818802270          -0.185
C98        C    0.0320127426    0.4456349925    0.5398540514          0.0989
S99        S    0.9397584021    0.6431873086    0.4239479794         -0.3346
S100       S    0.0566241882    0.3606283610    0.5804173190         -0.3347
H101       H    0.1332418175    0.4140245474    0.6278250386           0.279
H102       H    0.8689007267    0.5915028854    0.3678506083          0.2789
H103       H    0.0793612240    0.6642225168    0.5359094214          0.1849
H104       H    0.9187571926    0.3401083832    0.4658426653          0.1849
C81        C    0.4644293150    0.9208098789    0.5581660732         -0.0734
C82        C    0.4419100078    0.9178460368    0.4612408300         -0.1847
C83        C    0.4774084057    0.9933703012    0.4006293623          0.0986
C84        C    0.5401922407    0.0777049071    0.4409434122         -0.0726
C85        C    0.5630778863    0.0805862376    0.5377357577          -0.185
C86        C    0.5274612397    0.0050934665    0.5984057888          0.0989
S87        S    0.4363277208    0.9668043616    0.2812282569         -0.3346
S88        S    0.5713042761    0.0310386004    0.7168435438         -0.3347
H89        H    0.5220317961    0.9485588543    0.7559678591           0.279
H90        H    0.4780353180    0.0509627204    0.2447248987          0.2789
H91        H    0.3937982087    0.8521806615    0.4329499346          0.1849
H92        H    0.6115565674    0.1461656949    0.5659135023          0.1849
C69        C    0.4584788713    0.9218415599    0.9413770319         -0.0734
C70        C    0.5518730182    0.9801483150    0.9440709392         -0.1847
C71        C    0.5943066520    0.0570933560    0.0013692202          0.0986
C72        C    0.5382731917    0.0762043697    0.0601413870         -0.0726
C73        C    0.4449252129    0.0176299783    0.0578315507          -0.185
C74        C    0.4024620904    0.9407686107    0.0004057180          0.0989
S75        S    0.7137926686    0.1160115800    0.9895295913         -0.3346
S76        S    0.2832888194    0.8798153236    0.0151315601         -0.3347
H77        H    0.2638996745    0.8157520774    0.9492713012           0.279
H78        H    0.7323424579    0.1856354260    0.0474881954          0.2789
H79        H    0.5925109066    0.9632759440    0.8982665242          0.1849
H80        H    0.4043156161    0.0342217465    0.1040151661          0.1849
C57        C    0.5432255331    0.4651792116    0.0599790144         -0.0734
C58        C    0.5864203437    0.5146113808    0.9774256651         -0.1847
C59        C    0.5502695338    0.5538782192    0.9160316887          0.0986
C60        C    0.4645054492    0.5424260062    0.9400181057         -0.0726
C61        C    0.4215314847    0.4934113910    0.0228461888          -0.185
C62        C    0.4575990452    0.4539970944    0.0841588289          0.0989
S63        S    0.6224787761    0.6133745456    0.8183634108         -0.3346
S64        S    0.3870356680    0.3976222578    0.1839239992         -0.3347
H65        H    0.4368685854    0.3648342777    0.2238028349           0.279
H66        H    0.5681671607    0.6376346154    0.7727447988          0.2789
H67        H    0.6519200405    0.5220292641    0.9614969535          0.1849
H68        H    0.3562467855    0.4863993769    0.0390657133          0.1849
C45        C    0.4589883819    0.5387422589    0.5559512956         -0.0734
C46        C    0.4474748167    0.5298691718    0.4565745996         -0.1847
C47        C    0.4857168399    0.4912652649    0.3983957400          0.0986
C48        C    0.5391813733    0.4592801539    0.4440635363         -0.0726
C49        C    0.5502941845    0.4677104448    0.5434990614          -0.185
C50        C    0.5121908350    0.5064635294    0.6016723499          0.0989
S51        S    0.4570586037    0.4887300960    0.2753981445         -0.3346
S52        S    0.5378388305    0.5056727536    0.7251492290         -0.3347
H53        H    0.4969398472    0.5499229796    0.7588629242           0.279
H54        H    0.5061737490    0.4535774762    0.2403609097          0.2789
H55        H    0.4060716858    0.5549793434    0.4242394864          0.1849
H56        H    0.5912976688    0.4421625276    0.5759123882          0.1849
loop_
_geom_bond_atom_site_label_1
_geom_bond_atom_site_label_2
_geom_bond_distance
_geom_bond_site_symmetry_2
_ccdc_geom_bond_type
O1          C16 1.264       .   A
O1          Al9 1.910       .   S
C2          O12 1.307       .   A
C2           O3 1.213       .   A
C2          C45 1.622       .   S
O3          Al5 1.923       .   S
O4          Al5 1.887       .   S
O4           C6 1.257       .   A
Al5         O13 1.841       .   S
Al5         O14 1.849       .   S
Al5         O15 1.925       .   S
C6          O19 1.234       .   A
C6          C81 1.562       .   S
O7          Al9 1.883       .   S
O7          C17 1.279       .   A
O8         Al18 1.915       .   S
O8          C21 1.267       .   A
Al9         O14 1.814       .   S
Al9         O22 1.873       .   S
Al9         O19 1.904       .   S
O10        Al18 1.918       .   S
O10         C17 1.246       .   A
O11         C20 1.236       .   A
O11        Al18 1.930       .   S
O12        Al18 1.868       .   S
O13         C20 1.281       .   A
O14        Al18 1.829       .   S
O15         C16 1.232       .   A
C16         C69 1.532       .   S
C17         C93 1.582       .   S
C20         C60 1.424       .   S
C21         O22 1.287       .   A
C21        C105 1.521       .   S
O23         C38 1.264       .   A
O23        Al31 1.910       .   S
C24         O34 1.307       .   A
C24         O25 1.213       .   A
C24         C48 1.622       .   S
O25        Al27 1.923       .   S
O26        Al27 1.887       .   S
O26         C28 1.257       .   A
Al27        O35 1.841       .   S
Al27        O36 1.849       .   S
Al27        O37 1.925       .   S
C28         O41 1.234       .   A
C28         C96 1.582   1_655   S
O29        Al31 1.883       .   S
O29         C39 1.279       .   A
O30        Al40 1.915       .   S
O30         C43 1.267       .   A
Al31        O36 1.814       .   S
Al31        O44 1.873       .   S
Al31        O41 1.904       .   S
O32        Al40 1.918       .   S
O32         C39 1.246       .   A
O33         C42 1.236       .   A
O33        Al40 1.930       .   S
O34        Al40 1.868       .   S
O35         C42 1.281       .   A
O36        Al40 1.829       .   S
O37         C38 1.232       .   A
C38        C108 1.521   1_654   S
C39         C84 1.562   1_545   S
C42         C57 1.424   1_554   S
C43         O44 1.287       .   A
C43         C72 1.532   1_544   S
C105       C106 1.402       .   A
C105       C110 1.420       .   A
C106       C107 1.399       .   A
C106       H115 1.085       .   S
C107       C108 1.420       .   A
C107       S111 1.781       .   S
C108       C109 1.402       .   A
C109       C110 1.399       .   A
C109       H116 1.085       .   S
C110       S112 1.781       .   S
S111       H114 1.343       .   S
S112       H113 1.343       .   S
C93         C94 1.402       .   A
C93         C98 1.420       .   A
C94         C95 1.399       .   A
C94        H103 1.085       .   S
C95         C96 1.420       .   A
C95         S99 1.781       .   S
C96         C97 1.402       .   A
C97         C98 1.399       .   A
C97        H104 1.085       .   S
C98        S100 1.781       .   S
S99        H102 1.343       .   S
S100       H101 1.343       .   S
C81         C82 1.402       .   A
C81         C86 1.420       .   A
C82         C83 1.399       .   A
C82         H91 1.085       .   S
C83         C84 1.420       .   A
C83         S87 1.781       .   S
C84         C85 1.402       .   A
C85         C86 1.399       .   A
C85         H92 1.085       .   S
C86         S88 1.781       .   S
S87         H90 1.343       .   S
S88         H89 1.343       .   S
C69         C70 1.402       .   A
C69         C74 1.420       .   A
C70         C71 1.399       .   A
C70         H79 1.085       .   S
C71         C72 1.420       .   A
C71         S75 1.781       .   S
C72         C73 1.402       .   A
C73         C74 1.399       .   A
C73         H80 1.085       .   S
C74         S76 1.781       .   S
S75         H78 1.343       .   S
S76         H77 1.343       .   S
C57         C58 1.402       .   A
C57         C62 1.420       .   A
C58         C59 1.399       .   A
C58         H67 1.085       .   S
C59         C60 1.420       .   A
C59         S63 1.781       .   S
C60         C61 1.402       .   A
C61         C62 1.399       .   A
C61         H68 1.085       .   S
C62         S64 1.781       .   S
S63         H66 1.343       .   S
S64         H65 1.343       .   S
C45         C46 1.402       .   A
C45         C50 1.420       .   A
C46         C47 1.399       .   A
C46         H55 1.085       .   S
C47         C48 1.420       .   A
C47         S51 1.781       .   S
C48         C49 1.402       .   A
C49         C50 1.399       .   A
C49         H56 1.085       .   S
C50         S52 1.781       .   S
S51         H54 1.343       .   S
S52         H53 1.343       .   S
