data_acs_v1-6c_Al_1_1-3B_4H_Ch
_audit_creation_date              2021-05-19
_audit_creation_method            'tobacco_3.0'
_symmetry_space_group_name_H-M    'P1'
_symmetry_Int_Tables_number       1
_symmetry_cell_setting            triclinic
loop_
_symmetry_equiv_pos_as_xyz
  x,y,z
_cell_length_a                    30.5248505157599
_cell_length_b                    30.524850050414532
_cell_length_c                    24.206421666556032
_cell_angle_alpha                 90.00000064472455
_cell_angle_beta                  90.00000035397632
_cell_angle_gamma                 120.00070736472368
loop_
_atom_site_label
_atom_site_type_symbol
_atom_site_fract_x
_atom_site_fract_y
_atom_site_fract_z
_atom_site_charge
O1         O    0.2560455591    0.6645096939    0.8017920414          0.7946
O2         O    0.4083622092    0.7439525306    0.8017920425          0.7946
O3         O    0.3354884500    0.5916415596    0.8017920412          0.7946
O4         O    0.2560441520    0.5916368440    0.8017920409          0.7946
O5         O    0.4083615705    0.6645135459    0.8017920420          0.7946
O6         O    0.3354904958    0.7439533941    0.8017920422          0.7946
C7         C    0.2398088089    0.6199553174    0.8201177566          0.7946
C8         C    0.3800446836    0.7601890095    0.8201177581          0.7946
C9         C    0.3800465089    0.6199556747    0.8201177572          0.7946
O10        O    0.2560455584    0.6645096931    0.6982079580          0.7946
O11        O    0.4083622085    0.7439525298    0.6982079591          0.7946
O12        O    0.3354884493    0.5916415588    0.6982079578          0.7946
O13        O    0.2560441513    0.5916368432    0.6982079575          0.7946
O14        O    0.4083615698    0.6645135451    0.6982079586          0.7946
O15        O    0.3354904951    0.7439533933    0.6982079589          0.7946
Al16      Al    0.3004959197    0.6995099822    0.7500041312             1.0
Al17      Al    0.3989185880    0.6995107907    0.7500041316             1.0
Al18      Al    0.3004920445    0.6010857791    0.7500041306             1.0
O19        O    0.3333034450    0.6667009231    0.7500041311          0.7946
C20        C    0.2398088080    0.6199553163    0.6798822420          0.7946
C21        C    0.3800446827    0.7601890084    0.6798822435          0.7946
C22        C    0.3800465080    0.6199556736    0.6798822425          0.7946
O23        O    0.7438882008    0.3355565472    0.3017920446          0.7946
O24        O    0.5915715507    0.2561137104    0.3017920435          0.7946
O25        O    0.6644453099    0.4084246815    0.3017920448          0.7946
O26        O    0.7438896079    0.4084293971    0.3017920451          0.7946
O27        O    0.5915721894    0.3355526952    0.3017920440          0.7946
O28        O    0.6644432641    0.2561128470    0.3017920437          0.7946
C29        C    0.7601249512    0.3801109239    0.3201177606          0.7946
C30        C    0.6198890765    0.2398772318    0.3201177591          0.7946
C31        C    0.6198872512    0.3801105667    0.3201177601          0.7946
O32        O    0.7438882001    0.3355565464    0.1982079612          0.7946
O33        O    0.5915715500    0.2561137096    0.1982079601          0.7946
O34        O    0.6644453092    0.4084246807    0.1982079614          0.7946
O35        O    0.7438896072    0.4084293962    0.1982079617          0.7946
O36        O    0.5915721887    0.3355526943    0.1982079606          0.7946
O37        O    0.6644432634    0.2561128462    0.1982079604          0.7946
Al38      Al    0.6994378395    0.3005562581    0.2500041336             1.0
Al39      Al    0.6010151712    0.3005554496    0.2500041333             1.0
Al40      Al    0.6994417147    0.3989804612    0.2500041343             1.0
O41        O    0.6666303142    0.3333653172    0.2500041337          0.7946
C42        C    0.7601249503    0.3801109229    0.1798822460          0.7966
C43        C    0.6198890756    0.2398772307    0.1798822445          0.7946
C44        C    0.6198872503    0.3801105656    0.1798822454          0.7946
C195       C    0.8081452407    0.4041213149    0.1438668684         -0.2197
C196       C    0.8313735886    0.3721633820    0.1243682695         -0.2969
C197       C    0.8775536179    0.3954390261    0.0855876919         -0.3267
C198       C    0.9004190648    0.4506627032    0.0662263010         -0.1122
C199       C    0.8765901792    0.4823530772    0.0848257746         -0.3145
C200       C    0.8305267441    0.4591228604    0.1238215910          -0.307
C201       C    0.9475069228    0.4742717280    0.0288065488         -0.1863
C202       C    0.9719946337    0.4428375328    0.0116089373         -0.2974
C203       C    0.0199814316    0.4668035579    0.9755939433         -0.2974
C204       C    0.0434842622    0.5222495058    0.9568696546         -0.1863
C205       C    0.0185118068    0.5534425040    0.9732654074         -0.2976
C206       C    0.9704663916    0.5294307309    0.0092456633         -0.2975
C207       C    0.0923517221    0.5466325939    0.9223463142         -0.1124
C208       C    0.1169691807    0.5151672134    0.9058245416         -0.3265
C209       C    0.1666277353    0.5397793621    0.8725935209         -0.2972
C210       C    0.1917885184    0.5959449254    0.8561331342         -0.2195
C211       C    0.1667877746    0.6272565479    0.8720142728         -0.3071
C212       C    0.1169459708    0.6025352507    0.9049826900         -0.3144
H214       H    0.8145646499    0.3313432898    0.1389068648         -0.0895
H215       H    0.8950146997    0.3719117692    0.0714528654         -0.1175
H216       H    0.8932615032    0.5231164294    0.0700676831         -0.1181
H217       H    0.8130651617    0.4826629413    0.1379554469         -0.0906
H218       H    0.9546689994    0.4018575560    0.0257612329         -0.1215
H219       H    0.0383481502    0.4436627428    0.9631373246         -0.1215
H220       H    0.0357732282    0.5943982458    0.9590398981         -0.1208
H221       H    0.9520655197    0.5525509490    0.0216478933         -0.1208
H222       H    0.0985028901    0.4736912845    0.9183332381         -0.1175
H223       H    0.1849087406    0.5165299266    0.8604689291         -0.0895
H225       H    0.1851944469    0.6687123768    0.8594688968         -0.0907
H226       H    0.0984521573    0.6256590757    0.9168268239         -0.1182
C165       C    0.1917885220    0.5959449267    0.6438668685         -0.2197
C166       C    0.1403134809    0.5824050324    0.6692843485         -0.2969
C167       C    0.0929218523    0.5612866002    0.6324304254         -0.3267
C168       C    0.0970663334    0.5538215041    0.5701196288         -0.1122
C169       C    0.1487299814    0.5683017496    0.5444580652         -0.3145
C170       C    0.1960939049    0.5892179522    0.5813858780          -0.307
C171       C    0.0493451131    0.5312760386    0.5337070319         -0.1863
C172       C    0.9975841034    0.5155652966    0.5598776321         -0.2974
C173       C    0.9495718911    0.4915814998    0.5239030492         -0.2974
C174       C    0.9533754497    0.4832641689    0.4617579283         -0.1863
C175       C    0.0052483348    0.4997682346    0.4353783955         -0.2976
C176       C    0.0532835282    0.5238174438    0.4713749075         -0.2975
C177       C    0.9051577900    0.4578212037    0.4262012910         -0.1124
C178       C    0.8534540874    0.4416737246    0.4527502785         -0.3265
C179       C    0.8049444534    0.4149327922    0.4176922699         -0.2972
C180       C    0.8081452372    0.4041213136    0.3561331341         -0.2195
C181       C    0.8599586731    0.4209016594    0.3293785081         -0.3071
C182       C    0.9085122178    0.4479221396    0.3643954852         -0.3144
H184       H    0.1372230454    0.5877334292    0.7154656124         -0.0895
H185       H    0.0547087970    0.5508945645    0.6512940495         -0.1175
H186       H    0.1518622157    0.5631955036    0.4982096694         -0.1181
H187       H    0.2343153050    0.5996117468    0.5625088097         -0.0906
H188       H    0.9948246159    0.5215243850    0.6059679691         -0.1215
H189       H    0.9111669376    0.4796178973    0.5433099125         -0.1215
H190       H    0.0080381074    0.4938991491    0.3892687958         -0.1208
H191       H    0.0916947589    0.5358357046    0.4519579833         -0.1208
H192       H    0.8510811693    0.4493893831    0.4983961464         -0.1175
H193       H    0.7666694193    0.4028811025    0.4373608632         -0.0895
H195       H    0.8623712621    0.4132549314    0.2837276810         -0.0907
H196       H    0.9468468255    0.4602869629    0.3446901029         -0.1182
C135       C    0.5958780928    0.1918553210    0.3561340238         -0.2197
C136       C    0.5672384412    0.1897924199    0.4092902566         -0.2969
C137       C    0.5406385575    0.1406660492    0.4433857381         -0.3267
C138       C    0.5426088090    0.0935725250    0.4242194823         -0.1122
C139       C    0.5703964638    0.0952911645    0.3704600121         -0.3145
C140       C    0.5971945564    0.1445157184    0.3364908179          -0.307
C141       C    0.5172734294    0.0450045491    0.4592856409         -0.1863
C142       C    0.4907656668    0.0439685972    0.5137764426         -0.2974
C143       C    0.4667411824    0.9959789743    0.5497869465         -0.2974
C144       C    0.4693206184    0.9490647537    0.5312822378         -0.1863
C145       C    0.4950662219    0.9497835844    0.4763182176         -0.2976
C146       C    0.5190464030    0.9977862399    0.4402699664         -0.2975
C147       C    0.4467034726    0.9016861961    0.5681731416         -0.1124
C148       C    0.4207639402    0.9011018677    0.6229125684         -0.3265
C149       C    0.3993190314    0.8543149742    0.6607099363         -0.2972
C150       C    0.4040556664    0.8082109193    0.6438659788         -0.2195
C151       C    0.4293997858    0.8085207958    0.5887212914         -0.3071
C152       C    0.4505852364    0.8552249864    0.5507636272         -0.3144
H154       H    0.5659752958    0.2247381584    0.4235929048         -0.0895
H155       H    0.5197337269    0.1392174217    0.4829838001         -0.1175
H156       H    0.5714543645    0.0602549134    0.3560141056         -0.1181
H157       H    0.6181030478    0.1459571416    0.2968814742         -0.0906
H158       H    0.4891280269    0.0788479509    0.5275382086         -0.1215
H159       H    0.4473931491    0.9952799298    0.5903388314         -0.1215
H160       H    0.4966340597    0.9148809144    0.4624904817         -0.1208
H161       H    0.5383412948    0.9984662584    0.3996879077         -0.1208
H162       H    0.4175676596    0.9353651173    0.6355244387         -0.1175
H163       H    0.3802217363    0.8539198233    0.7012767336         -0.0895
H165       H    0.4325590846    0.7742561699    0.5760491104         -0.0907
H166       H    0.4694027520    0.8555403486    0.5100120189         -0.1182
C105       C    0.4040556655    0.8082109170    0.8561340206         -0.2197
C106       C    0.4607554801    0.8347355188    0.8703924950         -0.2969
C107       C    0.4852826366    0.8844495191    0.9035535004         -0.3267
C108       C    0.4530896076    0.9076745789    0.9223416095         -0.1122
C109       C    0.3965854361    0.8817008390    0.9071513532         -0.3145
C110       C    0.3720109710    0.8318453797    0.8741854541          -0.307
C111       C    0.4773926011    0.9565569416    0.9569078180         -0.1863
C112       C    0.5335571833    0.9815728342    0.9732669778         -0.2974
C113       C    0.5575884434    0.0295818635    0.0092466241         -0.2974
C114       C    0.5253748312    0.0524953087    0.0289066902         -0.1863
C115       C    0.4694236399    0.0279899355    0.0117667634         -0.2976
C116       C    0.4454106325    0.9799900765    0.9757140629         -0.2975
C117       C    0.5490262106    0.0995478051    0.0663161119         -0.1124
C118       C    0.6050501150    0.1240365055    0.0830440735         -0.3265
C119       C    0.6285268436    0.1702755127    0.1217127212         -0.2972
C120       C    0.5958780937    0.1918553233    0.1438659820         -0.2195
C121       C    0.5399879593    0.1677746407    0.1265203572         -0.3071
C122       C    0.5165942659    0.1216946443    0.0875700664         -0.3144
H124       H    0.4845289656    0.8174090707    0.8566778873         -0.0895
H125       H    0.5271958734    0.9039248411    0.9144864325         -0.1175
H126       H    0.3728574150    0.8991648534    0.9206478754         -0.1181
H127       H    0.3300847277    0.8123702501    0.8632523905         -0.0906
H128       H    0.5572756909    0.9643871201    0.9588932507         -0.1215
H129       H    0.5990975947    0.0479518128    0.0216991712         -0.1215
H130       H    0.4457126183    0.0452148187    0.0260493105         -0.1208
H131       H    0.4039193507    0.9616544226    0.9632070602         -0.1208
H132       H    0.6291026127    0.1078418439    0.0669241913         -0.1175
H133       H    0.6699549747    0.1883333855    0.1341931966         -0.0895
H135       H    0.5159277016    0.1839788573    0.1425669221         -0.0907
H136       H    0.4752517931    0.1038004635    0.0747713551         -0.1182
C75        C    0.5958762576    0.4041219955    0.1438654184         -0.2197
C76        C    0.6178788476    0.4255266197    0.0864785363         -0.2969
C77        C    0.5919123029    0.4466851086    0.0492014159         -0.3267
C78        C    0.5438647922    0.4463221197    0.0693077043         -0.1122
C79        C    0.5212480953    0.4239952061    0.1262603305         -0.3145
C80        C    0.5473658698    0.4030358899    0.1636435278          -0.307
C81        C    0.5188847312    0.4688930800    0.0326252369         -0.1863
C82        C    0.5424785403    0.4924300160    0.9763972272         -0.2974
C83        C    0.5184913997    0.5164190431    0.9403661432         -0.2974
C84        C    0.4709364784    0.5169058304    0.9606639952         -0.1863
C85        C    0.4468171475    0.4925960322    0.0164676374         -0.2976
C86        C    0.4707950029    0.4685459421    0.0524748570         -0.2975
C87        C    0.4479439989    0.5423200309    0.9254087895         -0.1124
C88        C    0.4720588589    0.5662972476    0.8695218688         -0.3265
C89        C    0.4500454256    0.5930058774    0.8348025532         -0.2972
C90        C    0.4040575016    0.5959442447    0.8561345842         -0.2195
C91        C    0.3794930941    0.5713438179    0.9117141898         -0.3071
C92        C    0.4013489586    0.5443658846    0.9462846145         -0.3144
H94        H    0.6535805383    0.4259876304    0.0717066978         -0.0895
H95        H    0.6083976317    0.4628908008    0.0068555497         -0.1175
H96        H    0.4853931525    0.4233156009    0.1409275923         -0.1181
H97        H    0.5308694083    0.3868261138    0.2060004283         -0.0906
H98        H    0.5778502763    0.4922563724    0.9615761825         -0.1215
H99        H    0.5361286091    0.5341664104    0.8988782494         -0.1215
H100       H    0.4113913231    0.4926804117    0.0312616400         -0.1208
H101       H    0.4531250469    0.4507459681    0.0939310894         -0.1208
H102       H    0.5062965766    0.5643980017    0.8539302968         -0.1175
H103       H    0.4679544884    0.6108483981    0.7935020023         -0.0895
H105       H    0.3452238259    0.5731738330    0.9273039660         -0.0907
H106       H    0.3832721179    0.5262214870    0.9874298594         -0.1182
C45        C    0.4040575000    0.5959442447    0.6438654173         -0.2197
C46        C    0.3972268593    0.5439609700    0.6592307298         -0.2969
C47        C    0.4186437542    0.5186722781    0.6212866509         -0.3267
C48        C    0.4468008256    0.5453576350    0.5679057898         -0.1122
C49        C    0.4527754874    0.5969005696    0.5519353591         -0.3145
C50        C    0.4315392983    0.6222920989    0.5900330991          -0.307
C51        C    0.4694837194    0.5206716023    0.5309337782         -0.1863
C52        C    0.4646082012    0.4698152217    0.5479145306         -0.2974
C53        C    0.4885796753    0.4457827937    0.5119275498         -0.2974
C54        C    0.5174866507    0.4726990336    0.4589955881         -0.1863
C55        C    0.5216289841    0.5231338704    0.4414882298         -0.2976
C56        C    0.4975883962    0.5471359176    0.4774720909         -0.2975
C57        C    0.5427963220    0.4494333410    0.4240086000         -0.1124
C58        C    0.5382728713    0.3988668529    0.4415577437         -0.3265
C59        C    0.5647058598    0.3761318182    0.4075475485         -0.2972
C60        C    0.5958762592    0.4041219956    0.3561345853         -0.2195
C61        C    0.5998320993    0.4543846339    0.3381348628         -0.3071
C62        C    0.5731317816    0.4769672761    0.3719910792         -0.3144
H64        H    0.3765664804    0.5243169827    0.6988820135         -0.0895
H65        H    0.4139293344    0.4803398933    0.6328444427         -0.1175
H66        H    0.4732358861    0.6164400834    0.5121315350         -0.1181
H67        H    0.4362581721    0.6606357234    0.5784643421         -0.0906
H68        H    0.4434029703    0.4500765961    0.5872852207         -0.1215
H69        H    0.4852850974    0.4082830237    0.5246572452         -0.1215
H70        H    0.5427541171    0.5428424269    0.4020668795         -0.1208
H71        H    0.5008307520    0.5846039494    0.4647097430         -0.1208
H72        H    0.5154738000    0.3783394897    0.4798183964         -0.1175
H73        H    0.5614547777    0.3387685357    0.4205976964         -0.0895
H75        H    0.6225709649    0.4749040957    0.2998491601         -0.0907
H76        H    0.5760832047    0.5141685956    0.3587799101         -0.1182
loop_
_geom_bond_atom_site_label_1
_geom_bond_atom_site_label_2
_geom_bond_distance
_geom_bond_site_symmetry_2
_ccdc_geom_bond_type
O1         Al16 1.762       .   S
O1           C7 1.272       .   A
O2         Al17 1.762       .   S
O2           C8 1.272       .   A
O3         Al18 1.762       .   S
O3           C9 1.272       .   A
O4         Al18 1.762       .   S
O4           C7 1.272       .   A
O5         Al17 1.762       .   S
O5           C9 1.272       .   A
O6         Al16 1.762       .   S
O6           C8 1.272       .   A
C7         C210 1.540       .   S
C8         C105 1.540       .   S
C9          C90 1.540       .   S
O10        Al16 1.762       .   S
O10         C20 1.272       .   A
O11        Al17 1.762       .   S
O11         C21 1.272       .   A
O12        Al18 1.762       .   S
O12         C22 1.272       .   A
O13        Al18 1.762       .   S
O13         C20 1.272       .   A
O14        Al17 1.762       .   S
O14         C22 1.272       .   A
O15        Al16 1.762       .   S
O15         C21 1.272       .   A
Al16        O19 1.735       .   S
Al17        O19 1.735       .   S
Al18        O19 1.735       .   S
C20        C165 1.540       .   S
C21        C150 1.540       .   S
C22         C45 1.540       .   S
O23        Al38 1.762       .   S
O23         C29 1.272       .   A
O24        Al39 1.762       .   S
O24         C30 1.272       .   A
O25        Al40 1.762       .   S
O25         C31 1.272       .   A
O26        Al40 1.762       .   S
O26         C29 1.272       .   A
O27        Al39 1.762       .   S
O27         C31 1.272       .   A
O28        Al38 1.762       .   S
O28         C30 1.272       .   A
C29        C180 1.540   1_655   S
C30        C135 1.540   1_545   S
C31         C60 1.540       .   S
O32        Al38 1.762       .   S
O32         C42 1.272       .   A
O33        Al39 1.762       .   S
O33         C43 1.272       .   A
O34        Al40 1.762       .   S
O34         C44 1.272       .   A
O35        Al40 1.762       .   S
O35         C42 1.272       .   A
O36        Al39 1.762       .   S
O36         C44 1.272       .   A
O37        Al38 1.762       .   S
O37         C43 1.272       .   A
Al38        O41 1.735       .   S
Al39        O41 1.735       .   S
Al40        O41 1.735       .   S
C42        C195 1.540   1_654   S
C43        C120 1.540   1_544   S
C44         C75 1.540   1_554   S
C196       C195 1.539       .   A
C195       C200 1.540       .   A
H214       C196 1.140       .   S
C197       C196 1.540       .   A
H215       C197 1.140       .   S
C197       C198 1.540       .   A
C201       C198 1.539       .   S
C199       C198 1.540       .   A
H216       C199 1.141       .   S
C200       C199 1.541       .   A
H217       C200 1.141       .   S
C206       C201 1.539       .   A
C202       C201 1.540       .   A
H218       C202 1.140       .   S
C202       C203 1.539       .   A
H219       C203 1.140       .   S
C204       C203 1.540       .   A
C207       C204 1.539       .   S
C205       C204 1.540       .   A
H220       C205 1.140       .   S
C206       C205 1.540       .   A
H221       C206 1.140       .   S
C212       C207 1.540       .   A
C207       C208 1.539       .   A
H222       C208 1.140       .   S
C209       C208 1.540       .   A
H223       C209 1.139       .   S
C210       C209 1.540       .   A
C211       C210 1.541       .   A
C212       C211 1.541       .   A
C211       H225 1.139       .   S
C212       H226 1.139       .   S
C166       C165 1.539       .   A
C165       C170 1.540       .   A
H184       C166 1.140       .   S
C167       C166 1.540       .   A
H185       C167 1.140       .   S
C167       C168 1.540       .   A
C171       C168 1.539       .   S
C169       C168 1.540       .   A
H186       C169 1.141       .   S
C170       C169 1.541       .   A
H187       C170 1.141       .   S
C176       C171 1.539       .   A
C172       C171 1.540       .   A
H188       C172 1.140       .   S
C172       C173 1.539       .   A
H189       C173 1.140       .   S
C174       C173 1.540       .   A
C177       C174 1.539       .   S
C175       C174 1.540       .   A
H190       C175 1.140       .   S
C176       C175 1.540       .   A
H191       C176 1.140       .   S
C182       C177 1.540       .   A
C177       C178 1.539       .   A
H192       C178 1.140       .   S
C179       C178 1.540       .   A
H193       C179 1.139       .   S
C180       C179 1.540       .   A
C181       C180 1.541       .   A
C182       C181 1.541       .   A
C181       H195 1.139       .   S
C182       H196 1.139       .   S
C136       C135 1.539       .   A
C135       C140 1.540       .   A
H154       C136 1.140       .   S
C137       C136 1.540       .   A
H155       C137 1.140       .   S
C137       C138 1.540       .   A
C141       C138 1.539       .   S
C139       C138 1.540       .   A
H156       C139 1.141       .   S
C140       C139 1.541       .   A
H157       C140 1.141       .   S
C146       C141 1.539       .   A
C142       C141 1.540       .   A
H158       C142 1.140       .   S
C142       C143 1.539       .   A
H159       C143 1.140       .   S
C144       C143 1.540       .   A
C147       C144 1.539       .   S
C145       C144 1.540       .   A
H160       C145 1.140       .   S
C146       C145 1.540       .   A
H161       C146 1.140       .   S
C152       C147 1.540       .   A
C147       C148 1.539       .   A
H162       C148 1.140       .   S
C149       C148 1.540       .   A
H163       C149 1.139       .   S
C150       C149 1.540       .   A
C151       C150 1.541       .   A
C152       C151 1.541       .   A
C151       H165 1.139       .   S
C152       H166 1.139       .   S
C106       C105 1.539       .   A
C105       C110 1.540       .   A
H124       C106 1.140       .   S
C107       C106 1.540       .   A
H125       C107 1.140       .   S
C107       C108 1.540       .   A
C111       C108 1.539       .   S
C109       C108 1.540       .   A
H126       C109 1.141       .   S
C110       C109 1.541       .   A
H127       C110 1.141       .   S
C116       C111 1.539       .   A
C112       C111 1.540       .   A
H128       C112 1.140       .   S
C112       C113 1.539       .   A
H129       C113 1.140       .   S
C114       C113 1.540       .   A
C117       C114 1.539       .   S
C115       C114 1.540       .   A
H130       C115 1.140       .   S
C116       C115 1.540       .   A
H131       C116 1.140       .   S
C122       C117 1.540       .   A
C117       C118 1.539       .   A
H132       C118 1.140       .   S
C119       C118 1.540       .   A
H133       C119 1.139       .   S
C120       C119 1.540       .   A
C121       C120 1.541       .   A
C122       C121 1.541       .   A
C121       H135 1.139       .   S
C122       H136 1.139       .   S
C76         C75 1.539       .   A
C75         C80 1.540       .   A
H94         C76 1.140       .   S
C77         C76 1.540       .   A
H95         C77 1.140       .   S
C77         C78 1.540       .   A
C81         C78 1.539       .   S
C79         C78 1.540       .   A
H96         C79 1.141       .   S
C80         C79 1.541       .   A
H97         C80 1.141       .   S
C86         C81 1.539       .   A
C82         C81 1.540       .   A
H98         C82 1.140       .   S
C82         C83 1.539       .   A
H99         C83 1.140       .   S
C84         C83 1.540       .   A
C87         C84 1.539       .   S
C85         C84 1.540       .   A
H100        C85 1.140       .   S
C86         C85 1.540       .   A
H101        C86 1.140       .   S
C92         C87 1.540       .   A
C87         C88 1.539       .   A
H102        C88 1.140       .   S
C89         C88 1.540       .   A
H103        C89 1.139       .   S
C90         C89 1.540       .   A
C91         C90 1.541       .   A
C92         C91 1.541       .   A
C91        H105 1.139       .   S
C92        H106 1.139       .   S
C46         C45 1.539       .   A
C45         C50 1.540       .   A
H64         C46 1.140       .   S
C47         C46 1.540       .   A
H65         C47 1.140       .   S
C47         C48 1.540       .   A
C51         C48 1.539       .   S
C49         C48 1.540       .   A
H66         C49 1.141       .   S
C50         C49 1.541       .   A
H67         C50 1.141       .   S
C56         C51 1.539       .   A
C52         C51 1.540       .   A
H68         C52 1.140       .   S
C52         C53 1.539       .   A
H69         C53 1.140       .   S
C54         C53 1.540       .   A
C57         C54 1.539       .   S
C55         C54 1.540       .   A
H70         C55 1.140       .   S
C56         C55 1.540       .   A
H71         C56 1.140       .   S
C62         C57 1.540       .   A
C57         C58 1.539       .   A
H72         C58 1.140       .   S
C59         C58 1.540       .   A
H73         C59 1.139       .   S
C60         C59 1.540       .   A
C61         C60 1.541       .   A
C62         C61 1.541       .   A
C61         H75 1.139       .   S
C62         H76 1.139       .   S
