data_acs_v1-6c_Al_1_1-1B_2CH3_Ch
_audit_creation_date              2021-04-19
_audit_creation_method            'tobacco_3.0'
_symmetry_space_group_name_H-M    'P1'
_symmetry_Int_Tables_number       1
_symmetry_cell_setting            triclinic
loop_
_symmetry_equiv_pos_as_xyz
  x,y,z
_cell_length_a                    16.96317362152868
_cell_length_b                    16.963174216238503
_cell_length_c                    13.451905816904427
_cell_angle_alpha                 89.99999907860528
_cell_angle_beta                  90.00000015765153
_cell_angle_gamma                 120.00086258314535
loop_
_atom_site_label
_atom_site_type_symbol
_atom_site_fract_x
_atom_site_fract_y
_atom_site_fract_z
_atom_site_charge
O1         O    0.3372416273    0.8057177448    0.6568013086          0.6683
O2         O    0.1942854871    0.5316269204    0.6568013111          0.6683
O3         O    0.4683660791    0.6627621439    0.6568013103          0.6683
O4         O    0.4683747873    0.8057204829    0.6568013089          0.6683
O5         O    0.3372342687    0.5316282943    0.6568013113          0.6683
O6         O    0.1942841375    0.6627580320    0.6568013098          0.6683
C7         C    0.4174163361    0.8349355608    0.6238245685          0.6683
C8         C    0.1650683647    0.5825836652    0.6238245706          0.6683
C9         C    0.4174153003    0.5825807770    0.6238245710          0.6683
O10        O    0.3372416268    0.8057177434    0.8431986886          0.6683
O11        O    0.1942854866    0.5316269189    0.8431986911          0.6683
O12        O    0.4683660786    0.6627621424    0.8431986903          0.6683
O13        O    0.4683747868    0.8057204814    0.8431986888          0.6683
O14        O    0.3372342682    0.5316282928    0.8431986913          0.6683
O15        O    0.1942841370    0.6627580305    0.8431986898          0.6683
Al16      Al    0.2742592193    0.7257301580    0.7499925654             1.0
Al17      Al    0.2742574885    0.5486206420    0.7499925672             1.0
Al18      Al    0.4513715019    0.7257374095    0.7499925657             1.0
O19        O    0.3332983390    0.6666938009    0.7499925661          0.6683
C20        C    0.4174163354    0.8349355588    0.8761754284          0.6683
C21        C    0.1650683640    0.5825836632    0.8761754305          0.6683
C22        C    0.4174152995    0.5825807749    0.8761754309          0.6683
O23        O    0.6626927327    0.1943478912    0.1568013144          0.6683
O24        O    0.8056488729    0.4684387156    0.1568013119          0.6683
O25        O    0.5315682809    0.3373034922    0.1568013127          0.6683
O26        O    0.5315595727    0.1943451532    0.1568013141          0.6683
O27        O    0.6627000913    0.4684373417    0.1568013117          0.6683
O28        O    0.8056502225    0.3373076040    0.1568013132          0.6683
C29        C    0.5825180241    0.1651300757    0.1238245746          0.6683
C30        C    0.8348659955    0.4174819713    0.1238245725          0.6683
C31        C    0.5825190600    0.4174848596    0.1238245721          0.6683
O32        O    0.6626927322    0.1943478897    0.3431986943          0.6683
O33        O    0.8056488724    0.4684387141    0.3431986919          0.6683
O34        O    0.5315682804    0.3373034907    0.3431986927          0.6683
O35        O    0.5315595722    0.1943451517    0.3431986941          0.6683
O36        O    0.6627000908    0.4684373402    0.3431986916          0.6683
O37        O    0.8056502219    0.3373076025    0.3431986932          0.6683
Al38      Al    0.7256751402    0.2743354765    0.2499925698             1.0
Al39      Al    0.7256768709    0.4514449925    0.2499925680             1.0
Al40      Al    0.5485628576    0.2743282250    0.2499925695             1.0
O41        O    0.6666360205    0.3333718337    0.2499925691          0.6683
C42        C    0.5825180234    0.1651300737    0.3761754344          0.6683
C43        C    0.8348659948    0.4174819693    0.3761754324          0.6683
C44        C    0.5825190592    0.4174848576    0.3761754320          0.6683
C125       C    0.0120669666    0.5649196772    0.9311068776         -0.5318
C126       C    0.0786533678    0.5393760323    0.9409859882         -0.3975
C127       C    0.0672121055    0.4726195882    0.0116156484         -0.1888
C128       C    0.9878673929    0.4351459573    0.0688931254         -0.5323
C129       C    0.9212809916    0.4606896022    0.0590140148         -0.3975
C130       C    0.9327222540    0.5274460463    0.9883843546         -0.1889
C131       C    0.8655757912    0.5599900157    0.9715417958         -0.5658
H132       H    0.0227857374    0.6162269316    0.8763514841          -0.176
H133       H    0.9771486221    0.3838387030    0.1236485189         -0.1757
C134       C    0.1343582181    0.4400954147    0.0284635719         -0.5653
H135       H    0.8905941122    0.6116765278    0.9129433514         -0.2736
H136       H    0.8547103513    0.5892896962    0.0391008766         -0.2413
H137       H    0.7985364723    0.5041369174    0.9498588089         -0.2413
H138       H    0.2013673783    0.4959394953    0.0501907349         -0.2415
H139       H    0.1452527657    0.4108236161    0.9609102705         -0.2415
H140       H    0.1093324681    0.3883798724    0.0870464803         -0.2738
C109       C    0.0159570479    0.4456421960    0.5627042833         -0.5318
C110       C    0.0786533679    0.5393760331    0.5590140137         -0.3975
C111       C    0.0631766551    0.5963543725    0.4948044676         -0.1888
C112       C    0.9839773116    0.5544234385    0.4372957197         -0.5321
C113       C    0.9212809916    0.4606896014    0.4409859893         -0.3975
C114       C    0.9367577044    0.4037112620    0.5051955354         -0.1889
C115       C    0.8739826355    0.3022197669    0.5150835193         -0.5658
H116       H    0.0297137251    0.4038013158    0.6126265843          -0.176
H117       H    0.9702206344    0.5962643187    0.3873734187         -0.1757
C118       C    0.1259526420    0.6978267786    0.4849091014         -0.5653
H119       H    0.9015912240    0.2744836279    0.5695610326         -0.2736
H120       H    0.8652188642    0.2670781843    0.4441808335         -0.2413
H121       H    0.8056613182    0.2856752413    0.5388060753         -0.2413
H122       H    0.1942441443    0.7143517450    0.4611418223         -0.2415
H123       H    0.1347463175    0.7329718181    0.5558047406         -0.2415
H124       H    0.0983350470    0.7255822562    0.4304496337         -0.2738
C93        C    0.4231296080    0.9786187735    0.5540797719         -0.5318
C94        C    0.4606233301    0.9213472298    0.5590149665         -0.3975
C95        C    0.5397763189    0.9424507929    0.5037521871         -0.1888
C96        C    0.5768047514    0.0214468611    0.4459202311         -0.5323
C97        C    0.5393110293    0.0787184048    0.4409850365         -0.3975
C98        C    0.4601580406    0.0576148416    0.4962478159         -0.1889
C99        C    0.4141880502    0.1142941058    0.4964433920         -0.5658
H100       H    0.3624892876    0.9606261567    0.5972668725          -0.176
H101       H    0.6374450718    0.0394394778    0.4027331305         -0.1757
C102       C    0.5857263355    0.8857689958    0.5035466614         -0.5653
H103       H    0.3545432468    0.0830738556    0.5451783146         -0.2736
H104       H    0.3922937485    0.1206993219    0.4217920553         -0.2413
H105       H    0.4601262209    0.1838307748    0.5220968932         -0.2413
H106       H    0.5398001832    0.8162618296    0.4778479411         -0.2415
H107       H    0.6075963314    0.8793330135    0.5781895816         -0.2415
H108       H    0.6453981598    0.9170001691    0.4548328312         -0.2738
C77        C    0.5433851028    0.9504045273    0.9907845233         -0.5318
C78        C    0.4606233314    0.9213472319    0.9409850360         -0.3975
C79        C    0.4150295629    0.9717187777    0.9497079464         -0.1888
C80        C    0.4565492567    0.0496611072    0.0092154797         -0.5323
C81        C    0.5393110281    0.0787184026    0.0590149670         -0.3975
C82        C    0.5849047966    0.0283468568    0.0502920566         -0.1889
C83        C    0.6740600044    0.0533231547    0.1005082851         -0.5658
H84        H    0.5766577552    0.9103781254    0.9826339843          -0.176
H85        H    0.4232766043    0.0896875092    0.0173660187         -0.1757
C86        C    0.3258806984    0.9467337725    0.8995114858         -0.5653
H87        H    0.6944911523    0.0033155505    0.0816476801         -0.2736
H88        H    0.6690901902    0.0557575579    0.1814737218         -0.2413
H89        H    0.7283850350    0.1208921063    0.0779837102         -0.2413
H90        H    0.2715642538    0.8791951289    0.9220799991         -0.2415
H91        H    0.3308299546    0.9442677238    0.8185558638         -0.2415
H92        H    0.3054515673    0.9967581661    0.9183416699         -0.2738
C61        C    0.4192778326    0.4446101251    0.9520480124         -0.5318
C62        C    0.4606236027    0.5393745249    0.9409861847         -0.3975
C63        C    0.5437720112    0.5974228267    0.9898922738         -0.1888
C64        C    0.5806565269    0.5554555095    0.0479519906         -0.5323
C65        C    0.5393107568    0.4606911097    0.0590138183         -0.3975
C66        C    0.4561623483    0.4026428078    0.0101077292         -0.1889
C67        C    0.4058647965    0.2999954435    0.0167967023         -0.5658
H68        H    0.3556294015    0.4019629674    0.9136463650          -0.176
H69        H    0.6443049580    0.5981026671    0.0863536380         -0.1757
C70        C    0.5940498140    0.7000540274    0.9832149245         -0.5653
H71        H    0.3436550525    0.2715712346    0.9721423518         -0.2736
H72        H    0.3874094025    0.2764573109    0.0935527751         -0.2413
H73        H    0.4475553316    0.2716384838    0.9903277741         -0.2413
H74        H    0.5523725722    0.7283948961    0.0097292601         -0.2415
H75        H    0.6124825121    0.7236006892    0.9064679996         -0.2415
H76        H    0.6562854110    0.7284919792    0.0278462939         -0.2738
C45        C    0.5371690845    0.5352402467    0.5913052275         -0.5318
C46        C    0.4606236035    0.5393745253    0.5590138170         -0.3975
C47        C    0.4214744831    0.5034053344    0.4651341302         -0.1888
C48        C    0.4627652750    0.4648253878    0.4086947755         -0.5323
C49        C    0.5393107560    0.4606911092    0.4409861860         -0.3975
C50        C    0.5784598763    0.4966603001    0.5348658728         -0.1889
C51        C    0.6606428308    0.4958586980    0.5768951792         -0.5658
H52        H    0.5655859091    0.5633692084    0.6635628800          -0.176
H53        H    0.4343484504    0.4366964261    0.3364371230         -0.1757
C54        C    0.3393140825    0.5042232935    0.4231087564         -0.5653
H55        H    0.6769320742    0.5277813991    0.6504166856         -0.2736
H56        H    0.7203076681    0.5323763032    0.5288669789         -0.2413
H57        H    0.6490619673    0.4265487984    0.5837741268         -0.2413
H58        H    0.3509228806    0.5735283578    0.4161897856         -0.2415
H59        H    0.2796569599    0.4677375961    0.4711389920         -0.2415
H60        H    0.3229957499    0.4722720980    0.3495900267         -0.2738
loop_
_geom_bond_atom_site_label_1
_geom_bond_atom_site_label_2
_geom_bond_distance
_geom_bond_site_symmetry_2
_ccdc_geom_bond_type
O1         Al16 1.762       .   S
O1           C7 1.272       .   A
O2         Al17 1.762       .   S
O2           C8 1.272       .   A
O3         Al18 1.762       .   S
O3           C9 1.272       .   A
O4         Al18 1.762       .   S
O4           C7 1.272       .   A
O5         Al17 1.762       .   S
O5           C9 1.272       .   A
O6         Al16 1.762       .   S
O6           C8 1.272       .   A
C7          C94 1.540       .   S
C8         C110 1.540       .   S
C9          C46 1.540       .   S
O10        Al16 1.762       .   S
O10         C20 1.272       .   A
O11        Al17 1.762       .   S
O11         C21 1.272       .   A
O12        Al18 1.762       .   S
O12         C22 1.272       .   A
O13        Al18 1.762       .   S
O13         C20 1.272       .   A
O14        Al17 1.762       .   S
O14         C22 1.272       .   A
O15        Al16 1.762       .   S
O15         C21 1.272       .   A
Al16        O19 1.735       .   S
Al17        O19 1.735       .   S
Al18        O19 1.735       .   S
C20         C78 1.540       .   S
C21        C126 1.540       .   S
C22         C62 1.540       .   S
O23        Al38 1.762       .   S
O23         C29 1.272       .   A
O24        Al39 1.762       .   S
O24         C30 1.272       .   A
O25        Al40 1.762       .   S
O25         C31 1.272       .   A
O26        Al40 1.762       .   S
O26         C29 1.272       .   A
O27        Al39 1.762       .   S
O27         C31 1.272       .   A
O28        Al38 1.762       .   S
O28         C30 1.272       .   A
C29         C81 1.540   1_544   S
C30        C129 1.540   1_654   S
C31         C65 1.540   1_554   S
O32        Al38 1.762       .   S
O32         C42 1.272       .   A
O33        Al39 1.762       .   S
O33         C43 1.272       .   A
O34        Al40 1.762       .   S
O34         C44 1.272       .   A
O35        Al40 1.762       .   S
O35         C42 1.272       .   A
O36        Al39 1.762       .   S
O36         C44 1.272       .   A
O37        Al38 1.762       .   S
O37         C43 1.272       .   A
Al38        O41 1.735       .   S
Al39        O41 1.735       .   S
Al40        O41 1.735       .   S
C42         C97 1.540   1_545   S
C43        C113 1.540   1_655   S
C44         C49 1.540       .   S
C125       C126 1.404       .   A
C125       C130 1.398       .   A
C125       H132 1.084       .   S
C126       C127 1.415       .   A
C127       C128 1.398       .   A
C127       C134 1.510       .   S
C128       C129 1.404       .   A
C128       H133 1.084       .   S
C129       C130 1.415       .   A
C130       C131 1.511       .   S
C131       H135 1.095       .   S
C131       H136 1.095       .   S
C131       H137 1.095       .   S
C134       H138 1.095       .   S
C134       H139 1.095       .   S
C134       H140 1.095       .   S
C109       C110 1.404       .   A
C109       C114 1.398       .   A
C109       H116 1.084       .   S
C110       C111 1.415       .   A
C111       C112 1.398       .   A
C111       C118 1.510       .   S
C112       C113 1.404       .   A
C112       H117 1.084       .   S
C113       C114 1.415       .   A
C114       C115 1.511       .   S
C115       H119 1.095       .   S
C115       H120 1.095       .   S
C115       H121 1.095       .   S
C118       H122 1.095       .   S
C118       H123 1.095       .   S
C118       H124 1.095       .   S
C93         C94 1.404       .   A
C93         C98 1.398       .   A
C93        H100 1.084       .   S
C94         C95 1.415       .   A
C95         C96 1.398       .   A
C95        C102 1.510       .   S
C96         C97 1.404       .   A
C96        H101 1.084       .   S
C97         C98 1.415       .   A
C98         C99 1.511       .   S
C99        H103 1.095       .   S
C99        H104 1.095       .   S
C99        H105 1.095       .   S
C102       H106 1.095       .   S
C102       H107 1.095       .   S
C102       H108 1.095       .   S
C77         C78 1.404       .   A
C77         C82 1.398       .   A
C77         H84 1.084       .   S
C78         C79 1.415       .   A
C79         C80 1.398       .   A
C79         C86 1.510       .   S
C80         C81 1.404       .   A
C80         H85 1.084       .   S
C81         C82 1.415       .   A
C82         C83 1.511       .   S
C83         H87 1.095       .   S
C83         H88 1.095       .   S
C83         H89 1.095       .   S
C86         H90 1.095       .   S
C86         H91 1.095       .   S
C86         H92 1.095       .   S
C61         C62 1.404       .   A
C61         C66 1.398       .   A
C61         H68 1.084       .   S
C62         C63 1.415       .   A
C63         C64 1.398       .   A
C63         C70 1.510       .   S
C64         C65 1.404       .   A
C64         H69 1.084       .   S
C65         C66 1.415       .   A
C66         C67 1.511       .   S
C67         H71 1.095       .   S
C67         H72 1.095       .   S
C67         H73 1.095       .   S
C70         H74 1.095       .   S
C70         H75 1.095       .   S
C70         H76 1.095       .   S
C45         C46 1.404       .   A
C45         C50 1.398       .   A
C45         H52 1.084       .   S
C46         C47 1.415       .   A
C47         C48 1.398       .   A
C47         C54 1.510       .   S
C48         C49 1.404       .   A
C48         H53 1.084       .   S
C49         C50 1.415       .   A
C50         C51 1.511       .   S
C51         H55 1.095       .   S
C51         H56 1.095       .   S
C51         H57 1.095       .   S
C54         H58 1.095       .   S
C54         H59 1.095       .   S
C54         H60 1.095       .   S
