data_acs_v1-6c_Al_1_1-1B_4H_Ch
_audit_creation_date              2021-04-20
_audit_creation_method            'tobacco_3.0'
_symmetry_space_group_name_H-M    'P1'
_symmetry_Int_Tables_number       1
_symmetry_cell_setting            triclinic
loop_
_symmetry_equiv_pos_as_xyz
  x,y,z
_cell_length_a                    17.35650298565055
_cell_length_b                    17.356502887891512
_cell_length_c                    13.763818025320276
_cell_angle_alpha                 89.99999909415256
_cell_angle_beta                  90.00000223790205
_cell_angle_gamma                 120.00086326047851
loop_
_atom_site_label
_atom_site_type_symbol
_atom_site_fract_x
_atom_site_fract_y
_atom_site_fract_z
_atom_site_charge
O1         O    0.1974326420    0.6628476952    0.8410866413          0.5398
O2         O    0.4653120899    0.8025641989    0.8410866464          0.5398
O3         O    0.3371486201    0.5346947595    0.8410866459          0.5398
O4         O    0.1974299664    0.5346862463    0.8410866426          0.5398
O5         O    0.4653107476    0.6628548915    0.8410866477          0.5398
O6         O    0.3371526380    0.8025655157    0.8410866433          0.5398
C7         C    0.1688769537    0.5844898878    0.8733160707          0.5398
C8         C    0.4155101145    0.8311192086    0.8733160742          0.5398
C9         C    0.4155129381    0.5844909043    0.8733160766          0.5398
O10        O    0.1974326389    0.6628476948    0.6589133522          0.5398
O11        O    0.4653120868    0.8025641985    0.6589133573          0.5398
O12        O    0.3371486170    0.5346947591    0.6589133568          0.5398
O13        O    0.1974299633    0.5346862459    0.6589133535          0.5398
O14        O    0.4653107445    0.6628548911    0.6589133587          0.5398
O15        O    0.3371526349    0.8025655154    0.6589133542          0.5398
Al16      Al    0.2756075682    0.7244028104    0.7500072635             1.0
Al17      Al    0.4487034737    0.7244045048    0.7500072676             1.0
Al18      Al    0.2756004815    0.5513042079    0.7500072652             1.0
O19        O    0.3333060587    0.6667016234    0.7500072654          0.5398
C20        C    0.1688769495    0.5844898873    0.6266839230          0.5398
C21        C    0.4155101103    0.8311192081    0.6266839265          0.5398
C22        C    0.4155129339    0.5844909038    0.6266839289          0.5398
O23        O    0.8025016791    0.3372179818    0.3410866375          0.5398
O24        O    0.5346222312    0.1975014782    0.3410866324          0.5398
O25        O    0.6627857010    0.4653709175    0.3410866329          0.5398
O26        O    0.8025043547    0.4653794307    0.3410866363          0.5398
O27        O    0.5346235735    0.3372107855    0.3410866311          0.5398
O28        O    0.6627816831    0.1975001613    0.3410866355          0.5398
C29        C    0.8310573685    0.4155757893    0.3733160667          0.5398
C30        C    0.5844242077    0.1689464686    0.3733160632          0.5398
C31        C    0.5844213841    0.4155747728    0.3733160608          0.5398
O32        O    0.8025016760    0.3372179815    0.1589133484          0.5398
O33        O    0.5346222281    0.1975014778    0.1589133434          0.5398
O34        O    0.6627856979    0.4653709172    0.1589133438          0.5398
O35        O    0.8025043516    0.4653794304    0.1589133472          0.5398
O36        O    0.5346235704    0.3372107852    0.1589133420          0.5398
O37        O    0.6627816800    0.1975001609    0.1589133464          0.5398
Al38      Al    0.7243267498    0.2756628662    0.2500072571             1.0
Al39      Al    0.5512308443    0.2756611718    0.2500072530             1.0
Al40      Al    0.7243338365    0.4487614688    0.2500072554             1.0
O41        O    0.6666282593    0.3333640533    0.2500072552          0.5398
C42        C    0.8310573643    0.4155757888    0.1266839190          0.5398
C43        C    0.5844242035    0.1689464681    0.1266839155          0.5398
C44        C    0.5844213799    0.4155747723    0.1266839131 0.5401999999999999
C95        C    0.9957726330    0.4685810919    0.8945125001         -0.5907
C96        C    0.0844235172    0.5422620935    0.9366569372         -0.3692
C97        C    0.0886180432    0.5737138400    0.0421444320         -0.5907
C98        C    0.0041616850    0.5314845848    0.1054874897         -0.5907
C99        C    0.9155108008    0.4578035831    0.0633430526         -0.3692
C100       C    0.9113162748    0.4263518367    0.9578555578         -0.5907
H101       H    0.9926675943    0.4452986302    0.8164243546         -0.3294
H102       H    0.1542372453    0.6282532509    0.0733429329         -0.3294
H103       H    0.0072667237    0.5547670464    0.1835756352         -0.3294
H104       H    0.8456970727    0.3718124258    0.9266570568         -0.3294
C85        C    0.0917895612    0.5581369107    0.4528077704         -0.5907
C86        C    0.0844235185    0.5422620950    0.5633430571         -0.3692
C87        C    0.9926011163    0.4841580226    0.6105352816         -0.5907
C88        C    0.9081447568    0.4419287659    0.5471922194         -0.5907
C89        C    0.9155107995    0.4578035817    0.4366569326         -0.3692
C90        C    0.0073332017    0.5159076541    0.3894647081         -0.5907
H91        H    0.1597619888    0.6011490162    0.4178732665         -0.3294
H92        H    0.9871458917    0.4724057015    0.6923546016         -0.3294
H93        H    0.8401723292    0.3989166604    0.5821267232         -0.3294
H94        H    0.0127884263    0.5276599751    0.3076453882         -0.3294
C75        C    0.4297277487    0.9862396939    0.5768872989         -0.5907
C76        C    0.4577385558    0.9155758656    0.5633420789         -0.3692
C77        C    0.5279779662    0.9293690099    0.4864547749         -0.5907
C78        C    0.5702065693    0.0138259827    0.4231126908         -0.5907
C79        C    0.5421957622    0.0844898111    0.4366579108         -0.3692
C80        C    0.4719563518    0.0706966667    0.5135452149         -0.5907
H81        H    0.3777323410    0.9760291845    0.6338038747         -0.3294
H82        H    0.5487136889    0.8770643318    0.4764262179         -0.3294
H83        H    0.6222019770    0.0240364922    0.3661961150         -0.3294
H84        H    0.4512206291    0.1230013448    0.5235737719         -0.3294
C65        C    0.5515032136    0.9508884011    0.9793306990         -0.5907
C66        C    0.4577385565    0.9155758629    0.9366579142         -0.3692
C67        C    0.4062025019    0.9647203002    0.9573272101         -0.5907
C68        C    0.4484311044    0.0491772756    0.0206692908         -0.5907
C69        C    0.5421957615    0.0844898137    0.0633420756         -0.3692
C70        C    0.5937318161    0.0353453765    0.0426727797         -0.5907
H71        H    0.5896532800    0.9145087527    0.9640300513         -0.3294
H72        H    0.3367966049    0.9385836403    0.9257416206         -0.3294
H73        H    0.4102810380    0.0855569239    0.0359699384         -0.3294
H74        H    0.6631377131    0.0614820364    0.0742583692         -0.3294
C55        C    0.5443854507    0.5460697218    0.9037554356         -0.5907
C56        C    0.4577401139    0.5422618060    0.9366581337         -0.3692
C57        C    0.4133218221    0.4962249225    0.0329026930         -0.5907
C58        C    0.4555488672    0.4539959548    0.0962445541         -0.5907
C59        C    0.5421942041    0.4578038707    0.0633418560         -0.3692
C60        C    0.5866124959    0.5038407542    0.9670972967         -0.5907
H61        H    0.5772665239    0.5801489733    0.8325094632         -0.3294
H62        H    0.3491858460    0.4934048598    0.0572601991         -0.3294
H63        H    0.4226677941    0.4199167034    0.1674905266         -0.3294
H64        H    0.6507484720    0.5066608169    0.9427397906         -0.3294
C45        C    0.4752647031    0.5659474242    0.4547199331         -0.5907
C46        C    0.4577401153    0.5422618022    0.5633418585         -0.3692
C47        C    0.4824425713    0.4763472163    0.6086219203         -0.5907
C48        C    0.5246696149    0.4341182525    0.5452800567         -0.5907
C49        C    0.5421942027    0.4578038745    0.4366581312         -0.3692
C50        C    0.5174917467    0.5237184603    0.3913780694         -0.5907
H51        H    0.4569784694    0.6147413384    0.4212009263         -0.3294
H52        H    0.4694717155    0.4588131171    0.6890249165         -0.3294
H53        H    0.5429558486    0.3853243382    0.5787990634         -0.3294
H54        H    0.5304626025    0.5412525596    0.3109750732         -0.3294
loop_
_geom_bond_atom_site_label_1
_geom_bond_atom_site_label_2
_geom_bond_distance
_geom_bond_site_symmetry_2
_ccdc_geom_bond_type
O1         Al16 1.762       .   S
O1           C7 1.272       .   A
O2         Al17 1.762       .   S
O2           C8 1.272       .   A
O3         Al18 1.762       .   S
O3           C9 1.272       .   A
O4         Al18 1.762       .   S
O4           C7 1.272       .   A
O5         Al17 1.762       .   S
O5           C9 1.272       .   A
O6         Al16 1.762       .   S
O6           C8 1.272       .   A
C7          C96 1.540       .   S
C8          C66 1.540       .   S
C9          C56 1.540       .   S
O10        Al16 1.762       .   S
O10         C20 1.272       .   A
O11        Al17 1.762       .   S
O11         C21 1.272       .   A
O12        Al18 1.762       .   S
O12         C22 1.272       .   A
O13        Al18 1.762       .   S
O13         C20 1.272       .   A
O14        Al17 1.762       .   S
O14         C22 1.272       .   A
O15        Al16 1.762       .   S
O15         C21 1.272       .   A
Al16        O19 1.735       .   S
Al17        O19 1.735       .   S
Al18        O19 1.735       .   S
C20         C86 1.540       .   S
C21         C76 1.540       .   S
C22         C46 1.540       .   S
O23        Al38 1.762       .   S
O23         C29 1.272       .   A
O24        Al39 1.762       .   S
O24         C30 1.272       .   A
O25        Al40 1.762       .   S
O25         C31 1.272       .   A
O26        Al40 1.762       .   S
O26         C29 1.272       .   A
O27        Al39 1.762       .   S
O27         C31 1.272       .   A
O28        Al38 1.762       .   S
O28         C30 1.272       .   A
C29         C89 1.540   1_655   S
C30         C79 1.540   1_545   S
C31         C49 1.540       .   S
O32        Al38 1.762       .   S
O32         C42 1.272       .   A
O33        Al39 1.762       .   S
O33         C43 1.272       .   A
O34        Al40 1.762       .   S
O34         C44 1.272       .   A
O35        Al40 1.762       .   S
O35         C42 1.272       .   A
O36        Al39 1.762       .   S
O36         C44 1.272       .   A
O37        Al38 1.762       .   S
O37         C43 1.272       .   A
Al38        O41 1.735       .   S
Al39        O41 1.735       .   S
Al40        O41 1.735       .   S
C42         C99 1.540   1_654   S
C43         C69 1.540   1_544   S
C44         C59 1.540   1_554   S
C95         C96 1.540       .   A
C95        C100 1.540       .   A
C95        H101 1.140       .   S
C96         C97 1.540       .   A
C97         C98 1.540       .   A
C97        H102 1.140       .   S
C98         C99 1.540       .   A
C98        H103 1.140       .   S
C99        C100 1.540       .   A
C100       H104 1.140       .   S
C85         C86 1.540       .   A
C85         C90 1.540       .   A
C85         H91 1.140       .   S
C86         C87 1.540       .   A
C87         C88 1.540       .   A
C87         H92 1.140       .   S
C88         C89 1.540       .   A
C88         H93 1.140       .   S
C89         C90 1.540       .   A
C90         H94 1.140       .   S
C75         C76 1.540       .   A
C75         C80 1.540       .   A
C75         H81 1.140       .   S
C76         C77 1.540       .   A
C77         C78 1.540       .   A
C77         H82 1.140       .   S
C78         C79 1.540       .   A
C78         H83 1.140       .   S
C79         C80 1.540       .   A
C80         H84 1.140       .   S
C65         C66 1.540       .   A
C65         C70 1.540       .   A
C65         H71 1.140       .   S
C66         C67 1.540       .   A
C67         C68 1.540       .   A
C67         H72 1.140       .   S
C68         C69 1.540       .   A
C68         H73 1.140       .   S
C69         C70 1.540       .   A
C70         H74 1.140       .   S
C55         C56 1.540       .   A
C55         C60 1.540       .   A
C55         H61 1.140       .   S
C56         C57 1.540       .   A
C57         C58 1.540       .   A
C57         H62 1.140       .   S
C58         C59 1.540       .   A
C58         H63 1.140       .   S
C59         C60 1.540       .   A
C60         H64 1.140       .   S
C45         C46 1.540       .   A
C45         C50 1.540       .   A
C45         H51 1.140       .   S
C46         C47 1.540       .   A
C47         C48 1.540       .   A
C47         H52 1.140       .   S
C48         C49 1.540       .   A
C48         H53 1.140       .   S
C49         C50 1.540       .   A
C50         H54 1.140       .   S
