data_acs_v1-6c_Al_1_1-1B_2furan_Ch
_audit_creation_date              2021-04-19
_audit_creation_method            'tobacco_3.0'
_symmetry_space_group_name_H-M    'P1'
_symmetry_Int_Tables_number       1
_symmetry_cell_setting            triclinic
loop_
_symmetry_equiv_pos_as_xyz
  x,y,z
_cell_length_a                    23.30893139862588
_cell_length_b                    23.308931579468073
_cell_length_c                    18.484140498537478
_cell_angle_alpha                 90.00001204236342
_cell_angle_beta                  89.99998937259375
_cell_angle_gamma                 120.0007711206011
loop_
_atom_site_label
_atom_site_type_symbol
_atom_site_fract_x
_atom_site_fract_y
_atom_site_fract_z
_atom_site_charge
O1         O    0.3361684451    0.7678707021    0.6821743002          0.6761
O2         O    0.2321317386    0.5684001253    0.6821742863          0.6761
O3         O    0.4315948712    0.6638341134    0.6821742759          0.6761
O4         O    0.4316011137    0.7678726059    0.6821742893          0.6761
O5         O    0.3361632719    0.5684010283    0.6821742745          0.6761
O6         O    0.2321306693    0.6638313066    0.6821742986          0.6761
C7         C    0.3945158837    0.7891340264    0.6581753443          0.6761
C8         C    0.2108688309    0.6054841145    0.6581753415          0.6761
C9         C    0.3945152974    0.6054818416    0.6581753207 0.6727000000000001
O10        O    0.3361684392    0.7678707108    0.8178257252          0.6761
O11        O    0.2321317327    0.5684001340    0.8178257114          0.6761
O12        O    0.4315948653    0.6638341220    0.8178257010          0.6761
O13        O    0.4316011078    0.7678726145    0.8178257144          0.6761
O14        O    0.3361632659    0.5684010369    0.8178256996          0.6761
O15        O    0.2321306634    0.6638313153    0.8178257237          0.6761
Al16      Al    0.2903328024    0.7096594692    0.7499946004             1.0
Al17      Al    0.2903316605    0.5807673236    0.7499945838             1.0
Al18      Al    0.4192269567    0.7096646266    0.7499945857             1.0
O19        O    0.3332987912    0.6666954886    0.7499945900          0.6761
C20        C    0.3945158757    0.7891340381    0.8418246733          0.6761
C21        C    0.2108688229    0.6054841262    0.8418246705          0.6761
C22        C    0.3945152894    0.6054818533    0.8418246497          0.6761
O23        O    0.6637655735    0.2321953203    0.1821742894          0.6761
O24        O    0.7678022800    0.4316658971    0.1821743033          0.6761
O25        O    0.5683391474    0.3362319090    0.1821743137          0.6761
O26        O    0.5683329049    0.2321934165    0.1821743003          0.6761
O27        O    0.6637707467    0.4316649941    0.1821743151          0.6761
O28        O    0.7678033492    0.3362347158    0.1821742910          0.6761
C29        C    0.6054181370    0.2109319929    0.1581753414          0.6761
C30        C    0.7890651897    0.3945819048    0.1581753441          0.6761
C31        C    0.6054187233    0.3945841777    0.1581753650          0.6761
O32        O    0.6637655675    0.2321953289    0.3178257145          0.6761
O33        O    0.7678022740    0.4316659057    0.3178257284          0.6761
O34        O    0.5683391414    0.3362319177    0.3178257387          0.6761
O35        O    0.5683328989    0.2321934251    0.3178257254          0.6761
O36        O    0.6637707408    0.4316650027    0.3178257402          0.6761
O37        O    0.7678033433    0.3362347244    0.3178257161          0.6761
Al38      Al    0.7096012103    0.2904065618    0.2499945942             1.0
Al39      Al    0.7096023522    0.4192987075    0.2499946108             1.0
Al40      Al    0.5807070559    0.2904014044    0.2499946089             1.0
O41        O    0.6666352215    0.3333705425    0.2499946046          0.6761
C42        C    0.6054181289    0.2109320047    0.3418246704          0.6761
C43        C    0.7890651817    0.3945819166    0.3418246732          0.6761
C44        C    0.6054187152    0.3945841895    0.3418246940          0.6761
C125       C    0.0364582602    0.5377514347    0.9320828698         -0.0233
C126       C    0.9670960970    0.5284261069    0.9458707793         -0.6867
C127       C    0.9296183936    0.4849315569    0.0114832225         -0.1635
C128       C    0.9584308724    0.4522693664    0.0598678332         -0.1053
C129       C    0.0275573960    0.4611356999    0.0456151799         -0.6678
C130       C    0.0652995677    0.5051683034    0.9804658393         -0.1644
O131       O    0.0867980059    0.5802533134    0.8750869059         -0.5879
C132       C    0.1479802220    0.5740397654    0.8889908154         -0.2665
C133       C    0.1353087031    0.5274442017    0.9536865775         -0.6368
O134       O    0.9109416516    0.4153914029    0.1214433107         -0.5551
C135       C    0.8519537906    0.4260262656    0.1110091993         -0.3551
C136       C    0.8625729458    0.4685368012    0.0430137563         -0.4995
H137       H    0.9453603320    0.5530107499    0.9105866590         -0.1196
H138       H    0.0497778350    0.4374478947    0.0816491488         -0.1358
H140       H    0.1717142523    0.5134532934    0.9777996449         -0.1364
H142       H    0.8277045697    0.4855500864    0.0213324190         -0.1777
C109       C    0.9675806621    0.4864648616    0.4255558954         -0.0233
C110       C    0.0438060378    0.5217639771    0.4284306573         -0.6867
C111       C    0.0746013065    0.5398334114    0.5046687699         -0.1635
C112       C    0.0329464336    0.5246479887    0.5734739811         -0.1053
C113       C    0.9567438738    0.4898926754    0.5704729049         -0.6678
C114       C    0.9259267001    0.4712224698    0.4943121745         -0.1644
O115       O    0.9226506923    0.4591275525    0.3599577824         -0.5879
C116       C    0.8519538008    0.4260262818    0.3889908291         -0.2665
C117       C    0.8531532019    0.4334527195    0.4719283996         -0.6368
O118       O    0.0775223267    0.5457598639    0.6396817962         -0.5551
C119       C    0.1479802118    0.5740397492    0.6110091856         -0.3551
C120       C    0.1470201559    0.5711159444    0.5276549662         -0.4995
H121       H    0.0753330845    0.5327925447    0.3775774689         -0.1196
H122       H    0.9251282101    0.4778486229    0.6214461380         -0.1358
H124       H    0.8083330193    0.4133858574    0.5094214575         -0.1364
H126       H    0.1916410196    0.5878455137    0.4904662048         -0.1777
C93        C    0.5052613037    0.9449543087    0.5383593148         -0.0233
C94        C    0.5683635901    0.0003101360    0.5022981059         -0.6867
C95        C    0.5593275818    0.0515853559    0.4586269107         -0.1635
C96        C    0.4923131404    0.0480869544    0.4504975846         -0.1053
C97        C    0.4291233210    0.9923459990    0.4860364284         -0.6678
C98        C    0.4382869151    0.9414735977    0.5303056009         -0.1644
O99        O    0.4984623369    0.8898665511    0.5878044979         -0.5879
C100       C    0.4259595821    0.8520204524    0.6110101983         -0.2665
C101       C    0.3880137292    0.8830700595    0.5755401194         -0.6368
O102       O    0.5003942827    0.1071397559    0.4073105968         -0.5551
C103       C    0.5739744305    0.1480455787    0.3889898164         -0.3551
C104       C    0.6109656076    0.1141214071    0.4199250715         -0.4995
H105       H    0.6186828612    0.0037731703    0.5085242687         -0.1196
H106       H    0.3789736140    0.9895070850    0.4808235561         -0.1358
H108       H    0.3332853936    0.8664591063    0.5829048971         -0.1364
H110       H    0.6663819297    0.1328388537    0.4159225033         -0.1777
C77        C    0.5130413575    0.0699125732    0.0148239521         -0.0233
C78        C    0.4663054986    0.0316049134    0.9516537689         -0.6867
C79        C    0.4592712379    0.9636581688    0.9344926014         -0.1635
C80        C    0.4964121761    0.9356593101    0.9764483041         -0.1053
C81        C    0.5436146322    0.9742992187    0.0391802110         -0.6678
C82        C    0.5501230744    0.0419215525    0.0568146726         -0.1644
O83        O    0.5274539488    0.1356010294    0.0474125459         -0.5879
C84        C    0.5739744487    0.1480455956    0.1110102151         -0.2665
C85        C    0.5887927586    0.0907690919    0.1172445568         -0.6368
O86        O    0.4766626098    0.8668362777    0.9487973072         -0.5551
C87        C    0.4259595639    0.8520204354    0.8889897996         -0.3551
C88        C    0.4150215215    0.9115581020    0.8791960563         -0.4995
H89        H    0.4378992045    0.0516927833    0.9204307117         -0.1196
H90        H    0.5711849537    0.9537065727    0.0712267787         -0.1358
H92        H    0.6212515105    0.0852956496    0.1597265918         -0.1364
H94        H    0.3797092130    0.9153740770    0.8393621957         -0.1777
C61        C    0.5613540878    0.4992086224    0.0270156233         -0.0233
C62        C    0.5721964610    0.5574964568    0.9783763170         -0.6867
C63        C    0.5088828243    0.5531972246    0.9470129927         -0.1635
C64        C    0.4394991318    0.4949060608    0.9620862103         -0.1053
C65        C    0.4287716780    0.4363450950    0.0101984882         -0.6678
C66        C    0.4920149810    0.4409706802    0.0421500555         -0.1644
O67        O    0.6126010794    0.4906133803    0.0688992227         -0.5879
C68        C    0.5739738820    0.4260281604    0.1110087645         -0.2665
C69        C    0.4993886240    0.3945301527    0.0946815827         -0.6368
O70        O    0.3876738030    0.5068126429    0.9263411245         -0.5551
C71        C    0.4259601306    0.5740378706    0.8889912502         -0.3551
C72        C    0.5009387572    0.6031147816    0.9008790571         -0.4995
H73        H    0.6236106639    0.6014909404    0.9672967145         -0.1196
H74        H    0.3772390592    0.3928508322    0.0222826880         -0.1358
H76        H    0.4576902844    0.3465359786    0.1184492571         -0.1364
H78        H    0.5423456906    0.6528815794    0.8804061556         -0.1777
C45        C    0.4930966903    0.5597734437    0.5200207745         -0.0233
C46        C    0.5361918505    0.5664794939    0.4538005619         -0.6867
C47        C    0.5466387062    0.5071816168    0.4394996689         -0.1635
C48        C    0.5170436886    0.4456116720    0.4877783615         -0.1053
C49        C    0.4744608742    0.4392344329    0.5543804817         -0.6678
C50        C    0.4634571168    0.4982214589    0.5682475368         -0.1644
O51        O    0.4706503064    0.6072482321    0.5458774312         -0.5879
C52        C    0.4259601091    0.5740378895    0.6110087741         -0.2665
C53        C    0.4213585432    0.5067767295    0.6258041023         -0.6368
O54        O    0.5337265278    0.3950873808    0.4575589880         -0.5551
C55        C    0.5739739035    0.4260281415    0.3889912406         -0.3551
C56        C    0.5827381151    0.4954754770    0.3773750797         -0.4995
H57        H    0.5580018305    0.6118530137    0.4170503347         -0.1196
H58        H    0.4517032028    0.3933482185    0.5904598179         -0.1358
H60        H    0.3912107381    0.4699376363    0.6702226927         -0.1364
H62        H    0.6097979125    0.5306995740    0.3306266612         -0.1777
loop_
_geom_bond_atom_site_label_1
_geom_bond_atom_site_label_2
_geom_bond_distance
_geom_bond_site_symmetry_2
_ccdc_geom_bond_type
O1         Al16 1.762       .   S
O1           C7 1.272       .   A
O2         Al17 1.762       .   S
O2           C8 1.272       .   A
O3         Al18 1.762       .   S
O3           C9 1.272       .   A
O4         Al18 1.762       .   S
O4           C7 1.272       .   A
O5         Al17 1.762       .   S
O5           C9 1.272       .   A
O6         Al16 1.762       .   S
O6           C8 1.272       .   A
C7         C100 1.540       .   S
C8         C119 1.540       .   S
C9          C52 1.540       .   S
O10        Al16 1.762       .   S
O10         C20 1.272       .   A
O11        Al17 1.762       .   S
O11         C21 1.272       .   A
O12        Al18 1.762       .   S
O12         C22 1.272       .   A
O13        Al18 1.762       .   S
O13         C20 1.272       .   A
O14        Al17 1.762       .   S
O14         C22 1.272       .   A
O15        Al16 1.762       .   S
O15         C21 1.272       .   A
Al16        O19 1.735       .   S
Al17        O19 1.735       .   S
Al18        O19 1.735       .   S
C20         C87 1.540       .   S
C21        C132 1.540       .   S
C22         C71 1.540       .   S
O23        Al38 1.762       .   S
O23         C29 1.272       .   A
O24        Al39 1.762       .   S
O24         C30 1.272       .   A
O25        Al40 1.762       .   S
O25         C31 1.272       .   A
O26        Al40 1.762       .   S
O26         C29 1.272       .   A
O27        Al39 1.762       .   S
O27         C31 1.272       .   A
O28        Al38 1.762       .   S
O28         C30 1.272       .   A
C29         C84 1.540   1_544   S
C30        C135 1.540   1_654   S
C31         C68 1.540   1_554   S
O32        Al38 1.762       .   S
O32         C42 1.272       .   A
O33        Al39 1.762       .   S
O33         C43 1.272       .   A
O34        Al40 1.762       .   S
O34         C44 1.272       .   A
O35        Al40 1.762       .   S
O35         C42 1.272       .   A
O36        Al39 1.762       .   S
O36         C44 1.272       .   A
O37        Al38 1.762       .   S
O37         C43 1.272       .   A
Al38        O41 1.735       .   S
Al39        O41 1.735       .   S
Al40        O41 1.735       .   S
C42        C103 1.540   1_545   S
C43        C116 1.540   1_655   S
C44         C55 1.540       .   S
C130       C125 1.529       .   A
O131       C125 1.518       .   A
C126       C125 1.541       .   A
H137       C126 1.141       .   S
C126       C127 1.541       .   A
C127       C136 1.527       .   A
C127       C128 1.530       .   A
O134       C128 1.519       .   A
C129       C128 1.541       .   A
H138       C129 1.141       .   S
C130       C129 1.541       .   A
C130       C133 1.526       .   A
O131       C132 1.526       .   A
C133       C132 1.541       .   A
H140       C133 1.141       .   S
O134       C135 1.526       .   A
C136       C135 1.542       .   A
H142       C136 1.140       .   S
C114       C109 1.529       .   A
O115       C109 1.518       .   A
C110       C109 1.541       .   A
H121       C110 1.141       .   S
C110       C111 1.541       .   A
C111       C120 1.527       .   A
C111       C112 1.530       .   A
O118       C112 1.519       .   A
C113       C112 1.541       .   A
H122       C113 1.141       .   S
C114       C113 1.541       .   A
C114       C117 1.526       .   A
O115       C116 1.526       .   A
C117       C116 1.541       .   A
H124       C117 1.141       .   S
O118       C119 1.526       .   A
C120       C119 1.542       .   A
H126       C120 1.140       .   S
C98         C93 1.529       .   A
O99         C93 1.518       .   A
C94         C93 1.541       .   A
H105        C94 1.141       .   S
C94         C95 1.541       .   A
C95        C104 1.527       .   A
C95         C96 1.530       .   A
O102        C96 1.519       .   A
C97         C96 1.541       .   A
H106        C97 1.141       .   S
C98         C97 1.541       .   A
C98        C101 1.526       .   A
O99        C100 1.526       .   A
C101       C100 1.541       .   A
H108       C101 1.141       .   S
O102       C103 1.526       .   A
C104       C103 1.542       .   A
H110       C104 1.140       .   S
C82         C77 1.529       .   A
O83         C77 1.518       .   A
C78         C77 1.541       .   A
H89         C78 1.141       .   S
C78         C79 1.541       .   A
C79         C88 1.527       .   A
C79         C80 1.530       .   A
O86         C80 1.519       .   A
C81         C80 1.541       .   A
H90         C81 1.141       .   S
C82         C81 1.541       .   A
C82         C85 1.526       .   A
O83         C84 1.526       .   A
C85         C84 1.541       .   A
H92         C85 1.141       .   S
O86         C87 1.526       .   A
C88         C87 1.542       .   A
H94         C88 1.140       .   S
C66         C61 1.529       .   A
O67         C61 1.518       .   A
C62         C61 1.541       .   A
H73         C62 1.141       .   S
C62         C63 1.541       .   A
C63         C72 1.527       .   A
C63         C64 1.530       .   A
O70         C64 1.519       .   A
C65         C64 1.541       .   A
H74         C65 1.141       .   S
C66         C65 1.541       .   A
C66         C69 1.526       .   A
O67         C68 1.526       .   A
C69         C68 1.541       .   A
H76         C69 1.141       .   S
O70         C71 1.526       .   A
C72         C71 1.542       .   A
H78         C72 1.140       .   S
C50         C45 1.529       .   A
O51         C45 1.518       .   A
C46         C45 1.541       .   A
H57         C46 1.141       .   S
C46         C47 1.541       .   A
C47         C56 1.527       .   A
C47         C48 1.530       .   A
O54         C48 1.519       .   A
C49         C48 1.541       .   A
H58         C49 1.141       .   S
C50         C49 1.541       .   A
C50         C53 1.526       .   A
O51         C52 1.526       .   A
C53         C52 1.541       .   A
H60         C53 1.141       .   S
O54         C55 1.526       .   A
C56         C55 1.542       .   A
H62         C56 1.140       .   S
