data_acs_v1-6c_Al_1_1-1B_2TrU
_audit_creation_date              2021-04-19
_audit_creation_method            'tobacco_3.0'
_symmetry_space_group_name_H-M    'P1'
_symmetry_Int_Tables_number       1
_symmetry_cell_setting            triclinic
loop_
_symmetry_equiv_pos_as_xyz
  x,y,z
_cell_length_a                    26.134952947628165
_cell_length_b                    26.134952796578425
_cell_length_c                    20.725198112411263
_cell_angle_alpha                 89.99999977984463
_cell_angle_beta                  89.99999980256979
_cell_angle_gamma                 120.00074107392422
loop_
_atom_site_label
_atom_site_type_symbol
_atom_site_fract_x
_atom_site_fract_y
_atom_site_fract_z
_atom_site_charge
O1         O    0.2430690856    0.6641417554    0.8104915812         -0.0492
O2         O    0.4209704807    0.7569287101    0.8104915806         -0.0492
O3         O    0.3358560151    0.5790339523    0.8104915812         -0.0492
O4         O    0.2430674135    0.5790284129    0.8104915814         -0.0492
O5         O    0.4209697035    0.6641463154    0.8104915808         -0.0492
O6         O    0.3358584644    0.7569296894    0.8104915808         -0.0492
C7         C    0.2241050216    0.6121035491    0.8318954781         -0.0492
C8         C    0.3878964504    0.7758924277    0.8318954773         -0.0492
C9         C    0.3878985272    0.6121040225    0.8318954777         -0.0492
O10        O    0.2430690860    0.6641417557    0.6895084192         -0.0492
O11        O    0.4209704810    0.7569287105    0.6895084186         -0.0492
O12        O    0.3358560155    0.5790339527    0.6895084192         -0.0492
O13        O    0.2430674139    0.5790284132    0.6895084194         -0.0492
O14        O    0.4209697038    0.6641463158    0.6895084188         -0.0492
O15        O    0.3358584648    0.7569296898    0.6895084188         -0.0492
Al16      Al    0.2949858127    0.7050210798    0.7500048250             1.0
Al17      Al    0.4099405921    0.7050220635    0.7500048248             1.0
Al18      Al    0.2949812479    0.5900645092    0.7500048253             1.0
O19        O    0.3333040236    0.6667010781    0.7500048250         -0.0492
C20        C    0.2241050221    0.6121035496    0.6681045227         -0.0492
C21        C    0.3878964509    0.7758924282    0.6681045219         -0.0492
C22        C    0.3878985277    0.6121040230    0.6681045223         -0.0492
O23        O    0.7568647968    0.3359243565    0.3104915816         -0.0492
O24        O    0.5789634017    0.2431374017    0.3104915822         -0.0492
O25        O    0.6640778673    0.4210321595    0.3104915816         -0.0492
O26        O    0.7568664689    0.4210376990    0.3104915814         -0.0492
O27        O    0.5789641789    0.3359197964    0.3104915820         -0.0492
O28        O    0.6640754180    0.2431364224    0.3104915820         -0.0492
C29        C    0.7758288607    0.3879625626    0.3318954781         -0.0492
C30        C    0.6120374318    0.2241736840    0.3318954789         -0.0492
C31        C    0.6120353550    0.3879620892    0.3318954785         -0.0492
O32        O    0.7568647971    0.3359243568    0.1895084196         -0.0492
O33        O    0.5789634021    0.2431374021    0.1895084202         -0.0492
O34        O    0.6640778676    0.4210321599    0.1895084196         -0.0492
O35        O    0.7568664692    0.4210376993    0.1895084194         -0.0492
O36        O    0.5789641793    0.3359197967    0.1895084200         -0.0492
O37        O    0.6640754183    0.2431364227    0.1895084200         -0.0492
Al38      Al    0.7049480700    0.2950450324    0.2500048259             1.0
Al39      Al    0.5899932906    0.2950440486    0.2500048261             1.0
Al40      Al    0.7049526348    0.4100016029    0.2500048256             1.0
O41        O    0.6666298591    0.3333650341    0.2500048258         -0.0492
C42        C    0.7758288611    0.3879625631    0.1681045227         -0.0492
C43        C    0.6120374323    0.2241736845    0.1681045235         -0.0492
C44        C    0.6120353555    0.3879620897    0.1681045231         -0.0492
C115       C    0.0557951588    0.5277393404    0.9578319318         -0.0492
C116       C    0.0495305853    0.5635132912    0.0132102766         -0.0492
C117       C    0.9935237070    0.5355605225    0.0552846629         -0.0492
C118       C    0.9439129814    0.4719480731    0.0419144458         -0.0492
C119       C    0.9501305542    0.4361594326    0.9866135327         -0.0492
C120       C    0.0061211396    0.4640523454    0.9444994260         -0.0492
C121       C    0.1118353669    0.5557876036    0.9157890570         -0.0492
C122       C    0.1680186818    0.5840600156    0.8739604736         -0.0492
C123       C    0.8879561831    0.4440321693    0.0839820556         -0.0492
C124       C    0.8319152009    0.4160060965    0.1260395271         -0.0492
H125       H    0.0863277502    0.6106809540    0.0229814953         -0.0492
H126       H    0.9887182671    0.5619550760    0.0962433965         -0.0492
H127       H    0.9132737503    0.3890159850    0.9768651304         -0.0492
H128       H    0.0108146008    0.4376038165    0.9035350325         -0.0492
C101       C    0.0558613271    0.5277116225    0.5420628504         -0.0492
C102       C    0.0402214769    0.5674128471    0.5015926539         -0.0492
C103       C    0.9842007247    0.5394658902    0.4595403298         -0.0492
C104       C    0.9439590155    0.4719287897    0.4580123543         -0.0492
C105       C    0.9595304592    0.4322218423    0.4984391579         -0.0492
C106       C    0.0155376964    0.4601077796    0.5405267850         -0.0492
C107       C    0.1119254130    0.5557498832    0.5840677550         -0.0492
C108       C    0.1680186810    0.5840600154    0.6260395262         -0.0492
C109       C    0.8879758345    0.4440239378    0.4159866979         -0.0492
C110       C    0.8319152017    0.4160060968    0.3739604746         -0.0492
H111       H    0.0701524256    0.6174567459    0.5027397861         -0.0492
H112       H    0.9725546752    0.5687259534    0.4294592295         -0.0492
H113       H    0.9295848177    0.3821833309    0.4971977376         -0.0492
H114       H    0.0271292293    0.4307696704    0.5705221715         -0.0492
C87        C    0.5278315490    0.0558027347    0.4577388410         -0.0492
C88        C    0.5319331175    0.0612735222    0.5317790901         -0.0492
C89        C    0.5039400984    0.0052814336    0.5738769959         -0.0492
C90        C    0.4719071243    0.9439696477    0.5418994208         -0.0492
C91        C    0.4677968751    0.9384496327    0.4679330625         -0.0492
C92        C    0.4957787522    0.9944073787    0.4257667331         -0.0492
C93        C    0.5558360659    0.1118592762    0.4157219391         -0.0492
C94        C    0.5839932505    0.1680854097    0.3739614470         -0.0492
C95        C    0.4439479471    0.8880287592    0.5839923315         -0.0492
C96        C    0.4159406322    0.8319807025    0.6260385538         -0.0492
H97        H    0.5556355293    0.1067652056    0.5553765780         -0.0492
H98        H    0.5068241984    0.0091871689    0.6286884868         -0.0492
H99        H    0.4440350644    0.8929292917    0.4444076578         -0.0492
H100       H    0.4927994245    0.9904049498    0.3709738887         -0.0492
C73        C    0.5281974043    0.0561317003    0.0417380541         -0.0492
C74        C    0.4675912344    0.0034192636    0.0602179108         -0.0492
C75        C    0.4395114066    0.9473491194    0.0182441258         -0.0492
C76        C    0.4720423743    0.9440912606    0.9579071979         -0.0492
C77        C    0.5326015829    0.9967200493    0.9394081843         -0.0492
C78        C    0.5607444066    0.0528225132    0.9813443896         -0.0492
C79        C    0.5561931552    0.1121803594    0.0837674893         -0.0492
C80        C    0.5839932500    0.1680854083    0.1260385536         -0.0492
C81        C    0.4439648865    0.8880439912    0.9159834497         -0.0492
C82        C    0.4159406327    0.8319807039    0.8739614472         -0.0492
H83        H    0.4435273383    0.0059609398    0.1049174144         -0.0492
H84        H    0.3946216384    0.9082980499    0.0317404364         -0.0492
H85        H    0.5565872355    0.9941327708    0.8946635420         -0.0492
H86        H    0.6056065971    0.0918377180    0.9677327054         -0.0492
C59        C    0.5282428863    0.4722874662    0.0418596716         -0.0492
C60        C    0.4607711795    0.4461238013    0.0422057135         -0.0492
C61        C    0.4326820492    0.4740877968    0.0002058652         -0.0492
C62        C    0.4720719917    0.5281275292    0.9579839304         -0.0492
C63        C    0.5394838936    0.5542937030    0.9575848075         -0.0492
C64        C    0.5676394761    0.5263695813    0.9995562046         -0.0492
C65        C    0.5562510069    0.4442690399    0.0839232717         -0.0492
C66        C    0.5839913713    0.4160067125    0.1260380710         -0.0492
C67        C    0.4439774589    0.5560503888    0.9160136707         -0.0492
C68        C    0.4159425114    0.5840593997    0.8739619298         -0.0468
H69        H    0.4316689486    0.4061118317    0.0735986596         -0.0492
H70        H    0.3827683957    0.4548799866    0.0004326737         -0.0492
H71        H    0.5685322839    0.5943379643    0.9262111748         -0.0492
H72        H    0.6175591239    0.5456750094    0.9993026910         -0.0492
C45        C    0.5278723286    0.4718259551    0.4582849675         -0.0492
C46        C    0.5244372424    0.5254166848    0.4329437930         -0.0492
C47        C    0.4964348578    0.5534887179    0.4749097821         -0.0492
C48        C    0.4719210766    0.5279395721    0.5420749763         -0.0492
C49        C    0.4753444802    0.4744112851    0.5674504485         -0.0492
C50        C    0.5033450893    0.4462941518    0.5255395415         -0.0492
C51        C    0.5558728886    0.4437981124    0.4162243186         -0.0492
C52        C    0.5839913711    0.4160067121    0.3739619302         -0.0492
C53        C    0.4439495937    0.5560156842    0.5839972064         -0.0492
C54        C    0.4159425116    0.5840594001    0.6260380706         -0.0492
H55        H    0.5425707403    0.5442344429    0.3831135326         -0.0492
H56        H    0.4937471768    0.5930984844    0.4562494673         -0.0492
H57        H    0.4571450113    0.4556107110    0.6172661302         -0.0492
H58        H    0.5059410470    0.4066603007    0.5442647030         -0.0492
loop_
_geom_bond_atom_site_label_1
_geom_bond_atom_site_label_2
_geom_bond_distance
_geom_bond_site_symmetry_2
_ccdc_geom_bond_type
O1         Al16 1.762       .   S
O1           C7 1.272       .   A
O2         Al17 1.762       .   S
O2           C8 1.272       .   A
O3         Al18 1.762       .   S
O3           C9 1.272       .   A
O4         Al18 1.762       .   S
O4           C7 1.272       .   A
O5         Al17 1.762       .   S
O5           C9 1.272       .   A
O6         Al16 1.762       .   S
O6           C8 1.272       .   A
C7         C122 1.540       .   S
C8          C82 1.540       .   S
C9          C68 1.540       .   S
O10        Al16 1.762       .   S
O10         C20 1.272       .   A
O11        Al17 1.762       .   S
O11         C21 1.272       .   A
O12        Al18 1.762       .   S
O12         C22 1.272       .   A
O13        Al18 1.762       .   S
O13         C20 1.272       .   A
O14        Al17 1.762       .   S
O14         C22 1.272       .   A
O15        Al16 1.762       .   S
O15         C21 1.272       .   A
Al16        O19 1.735       .   S
Al17        O19 1.735       .   S
Al18        O19 1.735       .   S
C20        C108 1.540       .   S
C21         C96 1.540       .   S
C22         C54 1.540       .   S
O23        Al38 1.762       .   S
O23         C29 1.272       .   A
O24        Al39 1.762       .   S
O24         C30 1.272       .   A
O25        Al40 1.762       .   S
O25         C31 1.272       .   A
O26        Al40 1.762       .   S
O26         C29 1.272       .   A
O27        Al39 1.762       .   S
O27         C31 1.272       .   A
O28        Al38 1.762       .   S
O28         C30 1.272       .   A
C29        C110 1.540   1_655   S
C30         C94 1.540   1_545   S
C31         C52 1.540       .   S
O32        Al38 1.762       .   S
O32         C42 1.272       .   A
O33        Al39 1.762       .   S
O33         C43 1.272       .   A
O34        Al40 1.762       .   S
O34         C44 1.272       .   A
O35        Al40 1.762       .   S
O35         C42 1.272       .   A
O36        Al39 1.762       .   S
O36         C44 1.272       .   A
O37        Al38 1.762       .   S
O37         C43 1.272       .   A
Al38        O41 1.735       .   S
Al39        O41 1.735       .   S
Al40        O41 1.735       .   S
C42        C124 1.540   1_654   S
C43         C80 1.540   1_544   S
C44         C66 1.540   1_554   S
C115       C116 1.540       .   A
C115       C120 1.540       .   A
C115       C121 1.539       .   S
C116       C117 1.539       .   A
C116       H125 1.140       .   S
C117       C118 1.538       .   A
C117       H126 1.140       .   S
C118       C119 1.538       .   A
C118       C123 1.538       .   S
C119       C120 1.539       .   A
C119       H127 1.140       .   S
C120       H128 1.139       .   S
C121       C122 1.539       .   T
C123       C124 1.539       .   T
C101       C102 1.540       .   A
C101       C106 1.540       .   A
C101       C107 1.539       .   S
C102       C103 1.539       .   A
C102       H111 1.140       .   S
C103       C104 1.538       .   A
C103       H112 1.140       .   S
C104       C105 1.538       .   A
C104       C109 1.538       .   S
C105       C106 1.539       .   A
C105       H113 1.140       .   S
C106       H114 1.139       .   S
C107       C108 1.539       .   T
C109       C110 1.539       .   T
C87         C88 1.540       .   A
C87         C92 1.540       .   A
C87         C93 1.539       .   S
C88         C89 1.539       .   A
C88         H97 1.140       .   S
C89         C90 1.538       .   A
C89         H98 1.140       .   S
C90         C91 1.538       .   A
C90         C95 1.538       .   S
C91         C92 1.539       .   A
C91         H99 1.140       .   S
C92        H100 1.139       .   S
C93         C94 1.539       .   T
C95         C96 1.539       .   T
C73         C74 1.540       .   A
C73         C78 1.540       .   A
C73         C79 1.539       .   S
C74         C75 1.539       .   A
C74         H83 1.140       .   S
C75         C76 1.538       .   A
C75         H84 1.140       .   S
C76         C77 1.538       .   A
C76         C81 1.538       .   S
C77         C78 1.539       .   A
C77         H85 1.140       .   S
C78         H86 1.139       .   S
C79         C80 1.539       .   T
C81         C82 1.539       .   T
C59         C60 1.540       .   A
C59         C64 1.540       .   A
C59         C65 1.539       .   S
C60         C61 1.539       .   A
C60         H69 1.140       .   S
C61         C62 1.538       .   A
C61         H70 1.140       .   S
C62         C63 1.538       .   A
C62         C67 1.538       .   S
C63         C64 1.539       .   A
C63         H71 1.140       .   S
C64         H72 1.139       .   S
C65         C66 1.539       .   T
C67         C68 1.539       .   T
C45         C46 1.540       .   A
C45         C50 1.540       .   A
C45         C51 1.539       .   S
C46         C47 1.539       .   A
C46         H55 1.140       .   S
C47         C48 1.538       .   A
C47         H56 1.140       .   S
C48         C49 1.538       .   A
C48         C53 1.538       .   S
C49         C50 1.539       .   A
C49         H57 1.140       .   S
C50         H58 1.139       .   S
C51         C52 1.539       .   T
C53         C54 1.539       .   T
