data_acs_v1-6c_Al_1_1-1B_2Br_Ch
_audit_creation_date              2021-04-19
_audit_creation_method            'tobacco_3.0'
_symmetry_space_group_name_H-M    'P1'
_symmetry_Int_Tables_number       1
_symmetry_cell_setting            triclinic
loop_
_symmetry_equiv_pos_as_xyz
  x,y,z
_cell_length_a                    17.016620582898778
_cell_length_b                    17.016620311311957
_cell_length_c                    13.494289059670015
_cell_angle_alpha                 89.99997133194545
_cell_angle_beta                  90.00002892996814
_cell_angle_gamma                 120.00086868107147
loop_
_atom_site_label
_atom_site_type_symbol
_atom_site_fract_x
_atom_site_fract_y
_atom_site_fract_z
_atom_site_charge
O1         O    0.1947188954    0.6627707310    0.8429059273          0.5462
O2         O    0.4679488634    0.8052778895    0.8429059681          0.5462
O3         O    0.3372254943    0.5320581278    0.8429060114          0.5462
O4         O    0.1947161588    0.5320494372    0.8429059673          0.5462
O5         O    0.4679474860    0.6627780850    0.8429060117          0.5462
O6         O    0.3372296083    0.8052792260    0.8429059277          0.5462
C7         C    0.1655928471    0.5828478306    0.8757791085          0.5462
C8         C    0.4171521699    0.8344032383    0.8757791092          0.5462
C9         C    0.4171550353    0.5828488802    0.8757791862          0.5462
O10        O    0.1947188696    0.6627707560    0.6570939895          0.5462
O11        O    0.4679488376    0.8052779146    0.6570940303          0.5462
O12        O    0.3372254686    0.5320581528    0.6570940735          0.5462
O13        O    0.1947161330    0.5320494623    0.6570940295          0.5462
O14        O    0.4679474602    0.6627781101    0.6570940739          0.5462
O15        O    0.3372295826    0.8052792511    0.6570939898          0.5462
Al16      Al    0.2744552471    0.7255553400    0.7500073743             1.0
Al17      Al    0.4510084977    0.7255570772    0.7500074289             1.0
Al18      Al    0.2744480087    0.5489993360    0.7500074284             1.0
O19        O    0.3333061797    0.6667016558    0.7500074105          0.5462
C20        C    0.1655928123    0.5828478645    0.6242208392          0.5462
C21        C    0.4171521350    0.8344032722    0.6242208400          0.5462
C22        C    0.4171550004    0.5828489142    0.6242209170          0.5462
O23        O    0.8052154861    0.3372948766    0.3429060096          0.5462
O24        O    0.5319855181    0.1947877181    0.3429059688          0.5462
O25        O    0.6627088872    0.4680074798    0.3429059255          0.5462
O26        O    0.8052182227    0.4680161704    0.3429059695          0.5462
O27        O    0.5319868955    0.3372875226    0.3429059251          0.5462
O28        O    0.6627047732    0.1947863816    0.3429060092          0.5462
C29        C    0.8343415435    0.4172177682    0.3757791598          0.5462
C30        C    0.5827822207    0.1656623604    0.3757791591          0.5462
C31        C    0.5827793554    0.4172167185    0.3757790820          0.5462
O32        O    0.8052154604    0.3372949017    0.1570940717          0.5462
O33        O    0.5319854924    0.1947877432    0.1570940309          0.5462
O34        O    0.6627088615    0.4680075049    0.1570939876          0.5462
O35        O    0.8052181970    0.4680161954    0.1570940317          0.5462
O36        O    0.5319868698    0.3372875476    0.1570939873          0.5462
O37        O    0.6627047474    0.1947864067    0.1570940713          0.5462
Al38      Al    0.7254791086    0.2745102927    0.2500074458             1.0
Al39      Al    0.5489258581    0.2745085554    0.2500073912             1.0
Al40      Al    0.7254863471    0.4510662966    0.2500073917             1.0
O41        O    0.6666281761    0.3333639768    0.2500074095          0.5462
C42        C    0.8343415086    0.4172178021    0.1242208906          0.5462
C43        C    0.5827821859    0.1656623944    0.1242208898          0.5462
C44        C    0.5827793205    0.4172167524    0.1242208128          0.5462
C95        C    0.0031801274    0.4564872047    0.9153001586         -0.5424
C96        C    0.0794525512    0.5397765490    0.9403851829         -0.3804
C97        C    0.0751349240    0.5834252270    0.0271216072         -0.4801
C98        C    0.9967542284    0.5435784280    0.0846998404         -0.5245
C99        C    0.9204818046    0.4602890837    0.0596148161         -0.3893
C100       C    0.9247994318    0.4166404057    0.9728783918         -0.4748
Br101     Br    0.8291467298    0.3040117174    0.9264811398         -0.4718
H102       H    0.0054153752    0.4220734713    0.8488651951         -0.3502
H103       H    0.9945189806    0.5779921613    0.1511348039           -0.37
Br104     Br    0.1707876260    0.6960539153    0.0735188592          -0.476
C85        C    0.0377893611    0.5891697794    0.5296665477         -0.5424
C86        C    0.0794525781    0.5397765871    0.5596148242         -0.3804
C87        C    0.0400213205    0.4488089689    0.5287137499         -0.4801
C88        C    0.9621449946    0.4108958533    0.4703334513         -0.5245
C89        C    0.9204817776    0.4602890455    0.4403851748         -0.3893
C90        C    0.9599130353    0.5512566638    0.4712862491         -0.4748
Br91      Br    0.9139360484    0.6290715051    0.4386924313         -0.4718
H92        H    0.0672598563    0.6591687231    0.5527938392         -0.3502
H93        H    0.9326744994    0.3408969095    0.4472061598           -0.37
Br94      Br    0.0859983074    0.3709941276    0.5613075677          -0.476
C75        C    0.5385151531    0.0000312323    0.5898069506          -0.541
C76        C    0.4602240469    0.9205468143    0.5596138687         -0.3804
C77        C    0.4216465988    0.9216065088    0.4676962763         -0.4801
C78        C    0.4614192027    0.0000344004    0.4101930484         -0.5245
C79        C    0.5397103088    0.0795188183    0.4403861303         -0.3893
C80        C    0.5782877570    0.0784591239    0.5323037227         -0.4748
Br81      Br    0.6837403125    0.1787213715    0.5860315783         -0.4718
H82        H    0.5689959359    0.0003230872    0.6602608250         -0.3502
H83        H    0.4309384199    0.9997425455    0.3397391740           -0.37
Br84      Br    0.3161940432    0.8213442612    0.4139684207          -0.476
C65        C    0.4799937951    0.9938465134    0.0996471582         -0.5424
C66        C    0.5397102708    0.0795187921    0.0596138607         -0.3804
C67        C    0.5594403640    0.0847362561    0.9577140984         -0.4801
C68        C    0.5199405606    0.0062191193    0.9003528408         -0.5245
C69        C    0.4602240849    0.9205468406    0.9403861383         -0.3893
C70        C    0.4404939917    0.9153293765    0.0422859006         -0.4748
Br71      Br    0.3617078480    0.8061879937    0.1101337496         -0.4718
H72        H    0.4641303719    0.9886853418    0.1778444009         -0.3502
H73        H    0.5358039839    0.0113802909    0.8221555981           -0.37
Br74      Br    0.6382265077    0.1938776390    0.8898662494          -0.476
C55        C    0.5473440451    0.5918777648    0.9809041624         -0.5424
C56        C    0.4602255672    0.5397763088    0.9403863361         -0.3804
C57        C    0.4126838530    0.4460602973    0.9605621678         -0.4801
C58        C    0.4525903107    0.4081878679    0.0190958366         -0.5245
C59        C    0.5397087885    0.4602893238    0.0596136629         -0.3893
C60        C    0.5872505028    0.5540053354    0.0394378312         -0.4748
Br61      Br    0.7053919010    0.6357099853    0.0872039257         -0.4718
H62        H    0.5847737195    0.6640078796    0.9660954155         -0.3502
H63        H    0.4151606362    0.3360577531    0.0339045835           -0.37
Br64      Br    0.2945424547    0.3643556474    0.9127960733          -0.476
C45        C    0.4142631770    0.4465456143    0.5385812552         -0.5424
C46        C    0.4602255939    0.5397762817    0.5596136478         -0.3804
C47        C    0.5477093778    0.5935160720    0.5196676689         -0.4801
C48        C    0.5856711787    0.5535200184    0.4614187438         -0.5245
C49        C    0.5397087619    0.4602893510    0.4403863512         -0.3893
C50        C    0.4522249779    0.4065495606    0.4803323301         -0.4748
Br51      Br    0.3793370486    0.2796389983    0.4605363589         -0.4718
H52        H    0.3469658830    0.4043077080    0.5687239029         -0.3502
H53        H    0.6529684728    0.5957579247    0.4312760961           -0.37
Br54      Br    0.6205973071    0.7204266344    0.5394636401          -0.476
loop_
_geom_bond_atom_site_label_1
_geom_bond_atom_site_label_2
_geom_bond_distance
_geom_bond_site_symmetry_2
_ccdc_geom_bond_type
O1         Al16 1.762       .   S
O1           C7 1.272       .   A
O2         Al17 1.762       .   S
O2           C8 1.272       .   A
O3         Al18 1.762       .   S
O3           C9 1.272       .   A
O4         Al18 1.762       .   S
O4           C7 1.272       .   A
O5         Al17 1.762       .   S
O5           C9 1.272       .   A
O6         Al16 1.762       .   S
O6           C8 1.272       .   A
C7          C96 1.540       .   S
C8          C69 1.540       .   S
C9          C56 1.540       .   S
O10        Al16 1.762       .   S
O10         C20 1.272       .   A
O11        Al17 1.762       .   S
O11         C21 1.272       .   A
O12        Al18 1.762       .   S
O12         C22 1.272       .   A
O13        Al18 1.762       .   S
O13         C20 1.272       .   A
O14        Al17 1.762       .   S
O14         C22 1.272       .   A
O15        Al16 1.762       .   S
O15         C21 1.272       .   A
Al16        O19 1.735       .   S
Al17        O19 1.735       .   S
Al18        O19 1.735       .   S
C20         C86 1.540       .   S
C21         C76 1.540       .   S
C22         C46 1.540       .   S
O23        Al38 1.762       .   S
O23         C29 1.272       .   A
O24        Al39 1.762       .   S
O24         C30 1.272       .   A
O25        Al40 1.762       .   S
O25         C31 1.272       .   A
O26        Al40 1.762       .   S
O26         C29 1.272       .   A
O27        Al39 1.762       .   S
O27         C31 1.272       .   A
O28        Al38 1.762       .   S
O28         C30 1.272       .   A
C29         C89 1.540   1_655   S
C30         C79 1.540   1_545   S
C31         C49 1.540       .   S
O32        Al38 1.762       .   S
O32         C42 1.272       .   A
O33        Al39 1.762       .   S
O33         C43 1.272       .   A
O34        Al40 1.762       .   S
O34         C44 1.272       .   A
O35        Al40 1.762       .   S
O35         C42 1.272       .   A
O36        Al39 1.762       .   S
O36         C44 1.272       .   A
O37        Al38 1.762       .   S
O37         C43 1.272       .   A
Al38        O41 1.735       .   S
Al39        O41 1.735       .   S
Al40        O41 1.735       .   S
C42         C99 1.540   1_654   S
C43         C66 1.540   1_544   S
C44         C59 1.540   1_554   S
C95         C96 1.403       .   A
C95        C100 1.392       .   A
C95        H102 1.082       .   S
C96         C97 1.408       .   A
C97         C98 1.392       .   A
C97       Br104 1.896       .   S
C98         C99 1.403       .   A
C98        H103 1.082       .   S
C99        C100 1.408       .   A
C100      Br101 1.896       .   S
C85         C86 1.403       .   A
C85         C90 1.392       .   A
C85         H92 1.082       .   S
C86         C87 1.408       .   A
C87         C88 1.392       .   A
C87        Br94 1.896       .   S
C88         C89 1.403       .   A
C88         H93 1.082       .   S
C89         C90 1.408       .   A
C90        Br91 1.896       .   S
C75         C76 1.403       .   A
C75         C80 1.392       .   A
C75         H82 1.082       .   S
C76         C77 1.408       .   A
C77         C78 1.392       .   A
C77        Br84 1.896       .   S
C78         C79 1.403       .   A
C78         H83 1.082       .   S
C79         C80 1.408       .   A
C80        Br81 1.896       .   S
C65         C66 1.403       .   A
C65         C70 1.392       .   A
C65         H72 1.082       .   S
C66         C67 1.408       .   A
C67         C68 1.392       .   A
C67        Br74 1.896       .   S
C68         C69 1.403       .   A
C68         H73 1.082       .   S
C69         C70 1.408       .   A
C70        Br71 1.896       .   S
C55         C56 1.403       .   A
C55         C60 1.392       .   A
C55         H62 1.082       .   S
C56         C57 1.408       .   A
C57         C58 1.392       .   A
C57        Br64 1.896       .   S
C58         C59 1.403       .   A
C58         H63 1.082       .   S
C59         C60 1.408       .   A
C60        Br61 1.896       .   S
C45         C46 1.403       .   A
C45         C50 1.392       .   A
C45         H52 1.082       .   S
C46         C47 1.408       .   A
C47         C48 1.392       .   A
C47        Br54 1.896       .   S
C48         C49 1.403       .   A
C48         H53 1.082       .   S
C49         C50 1.408       .   A
C50        Br51 1.896       .   S
