data_acs_v1-6c_Al_1_1-3B_4H_Ch
_audit_creation_date              2021-04-20
_audit_creation_method            'tobacco_3.0'
_symmetry_space_group_name_H-M    'P1'
_symmetry_Int_Tables_number       1
_symmetry_cell_setting            triclinic
loop_
_symmetry_equiv_pos_as_xyz
  x,y,z
_cell_length_a                    30.524849862176286
_cell_length_b                    30.524850339967635
_cell_length_c                    24.206421137261923
_cell_angle_alpha                 89.99999976312819
_cell_angle_beta                  90.00000015708437
_cell_angle_gamma                 120.0007076868352
loop_
_atom_site_label
_atom_site_type_symbol
_atom_site_fract_x
_atom_site_fract_y
_atom_site_fract_z
_atom_site_charge
O1         O    0.3354903068    0.7439544419    0.6982079570          0.7946
O2         O    0.2560474689    0.5916377904    0.6982079572          0.7946
O3         O    0.4083584414    0.6645115506    0.6982079573          0.7946
O4         O    0.4083631572    0.7439558492    0.6982079571          0.7946
O5         O    0.3354864542    0.5916384294    0.6982079574          0.7946
O6         O    0.2560466056    0.6645095043    0.6982079571          0.7946
C7         C    0.3800446837    0.7601911925    0.6798822410          0.7966
C8         C    0.2398109901    0.6199553163    0.6798822411          0.7946
C9         C    0.3800443261    0.6199534915    0.6798822413          0.7946
O10        O    0.3354903068    0.7439544417    0.8017920426          0.7946
O11        O    0.2560474689    0.5916377902    0.8017920429          0.7946
O12        O    0.4083584414    0.6645115505    0.8017920429          0.7946
O13        O    0.4083631572    0.7439558491    0.8017920427          0.7946
O14        O    0.3354864543    0.5916384292    0.8017920430          0.7946
O15        O    0.2560466057    0.6645095042    0.8017920427          0.7946
Al16      Al    0.3004900176    0.6995040804    0.7499958687             1.0
Al17      Al    0.3004892088    0.6010814115    0.7499958690             1.0
Al18      Al    0.3989142215    0.6995079560    0.7499958689             1.0
O19        O    0.3332990769    0.6666965550    0.7499958689          0.7946
C20        C    0.3800446838    0.7601911923    0.8201177587          0.7946
C21        C    0.2398109902    0.6199553161    0.8201177588          0.7946
C22        C    0.3800443261    0.6199534913    0.8201177590          0.7946
O23        O    0.6644434494    0.2561117963    0.1982079565          0.7946
O24        O    0.7438862873    0.4084284478    0.1982079562          0.7946
O25        O    0.5915753148    0.3355546876    0.1982079562          0.7946
O26        O    0.5915705990    0.2561103890    0.1982079564          0.7946
O27        O    0.6644473020    0.4084278089    0.1982079561          0.7946
O28        O    0.7438871506    0.3355567339    0.1982079564          0.7946
C29        C    0.6198890724    0.2398750458    0.1798822404          0.7946
C30        C    0.7601227661    0.3801109219    0.1798822403          0.7946
C31        C    0.6198894301    0.3801127468    0.1798822401          0.7946
O32        O    0.6644434495    0.2561117962    0.3017920421          0.7946
O33        O    0.7438862873    0.4084284477    0.3017920419          0.7946
O34        O    0.5915753149    0.3355546874    0.3017920418          0.7946
O35        O    0.5915705991    0.2561103888    0.3017920420          0.7946
O36        O    0.6644473020    0.4084278087    0.3017920417          0.7946
O37        O    0.7438871506    0.3355567337    0.3017920420          0.7946
Al38      Al    0.6994437386    0.3005621576    0.2499958681             1.0
Al39      Al    0.6994445474    0.3989848266    0.2499958679             1.0
Al40      Al    0.6010195348    0.3005582821    0.2499958679             1.0
O41        O    0.6666346793    0.3333696830    0.2499958680          0.7946
C42        C    0.6198890725    0.2398750456    0.3201177581          0.7946
C43        C    0.7601227661    0.3801109217    0.3201177580          0.7946
C44        C    0.6198894302    0.3801127466    0.3201177578          0.7946
C195       C    0.8081446727    0.4041219035    0.1438659791         -0.2197
C196       C    0.8043129063    0.4107206644    0.0813366676         -0.2969
C197       C    0.8526757878    0.4375444278    0.0460270984         -0.3267
C198       C    0.9048773323    0.4578603121    0.0733155193         -0.1122
C199       C    0.9088013177    0.4521724083    0.1360472753         -0.3145
C200       C    0.8603960848    0.4251344270    0.1713193400          -0.307
C201       C    0.9530541648    0.4832944773    0.0376273702         -0.1863
C202       C    0.9487981483    0.4876059558    0.9747218894         -0.2974
C203       C    0.9967795902    0.5116172024    0.9386983743         -0.2974
C204       C    0.0490013387    0.5312400591    0.9656425018         -0.1863
C205       C    0.0533534016    0.5277278349    0.0286696529         -0.2976
C206       C    0.0053419127    0.5037550160    0.0647038594         -0.2975
C207       C    0.0967773060    0.5537647607    0.9293835482         -0.1124
C208       C    0.0922043016    0.5574350612    0.8664435381         -0.3265
C209       C    0.1397255266    0.5786440053    0.8298138877         -0.2972
C210       C    0.1917890835    0.5959443346    0.8561340200         -0.2195
C211       C    0.1964651478    0.5929177339    0.9192067464         -0.3071
C212       C    0.1489484766    0.5719718861    0.9558724224         -0.3144
H214       H    0.7656418875    0.3954776028    0.0611105279         -0.0895
H215       H    0.8498551115    0.4421160704    0.9996404473         -0.1175
H216       H    0.9475031152    0.4676369435    0.1563216856         -0.1181
H217       H    0.8632253604    0.4205657989    0.2177194908         -0.0906
H218       H    0.9100590546    0.4728115784    0.9548228161         -0.1215
H219       H    0.9936484476    0.5145245415    0.8920561748         -0.1215
H220       H    0.0920937658    0.5425998091    0.0485996393         -0.1208
H221       H    0.0084764503    0.5009015380    0.1113513768         -0.1208
H222       H    0.0536163155    0.5443153261    0.8469549325         -0.1175
H223       H    0.1363330123    0.5812588568    0.7832243939         -0.0895
H225       H    0.2350402855    0.6060819258    0.9387330428         -0.0907
H226       H    0.1523348207    0.5696408520    0.0025100375         -0.1182
C165       C    0.8081446729    0.4041219034    0.3561340194         -0.2197
C166       C    0.8291775965    0.3713008355    0.3791233014         -0.2969
C167       C    0.8789002395    0.3959688687    0.4122705672         -0.3267
C168       C    0.9076292904    0.4534974298    0.4223082938         -0.1122
C169       C    0.8871465630    0.4865032896    0.3983882882         -0.3145
C170       C    0.8372819140    0.4617790285    0.3654369987          -0.307
C171       C    0.9565123604    0.4778119446    0.4568733786         -0.1863
C172       C    0.9760347423    0.4444257726    0.4819662593         -0.2974
C173       C    0.0240402079    0.4683989327    0.5179515719         -0.2974
C174       C    0.0524494600    0.5257734979    0.5288742671         -0.1863
C175       C    0.0334336151    0.5593081431    0.5030069506         -0.2976
C176       C    0.9854349717    0.5353149591    0.4669523168         -0.2975
C177       C    0.0995030915    0.5494433716    0.5662818851         -0.1124
C178       C    0.1184889308    0.5157640982    0.5917584332         -0.3265
C179       C    0.1647148005    0.5390266644    0.6304479678         -0.2972
C180       C    0.1917890833    0.5959443347    0.6438659797         -0.2195
C181       C    0.1732127410    0.6297814907    0.6177694166         -0.3071
C182       C    0.1271422586    0.6065428932    0.5788039996         -0.3144
H184       H    0.8077779412    0.3286762064    0.3718843803         -0.0895
H185       H    0.8943116679    0.3716358098    0.4296643791         -0.1175
H186       H    0.9086841599    0.5291794991    0.4054085274         -0.1181
H187       H    0.8218723187    0.4861258289    0.3480404466         -0.0906
H188       H    0.9547854719    0.4019034873    0.4740528755         -0.1215
H189       H    0.0383462640    0.4436617935    0.5368649983         -0.1215
H190       H    0.0547226152    0.6018470530    0.5108282632         -0.1208
H191       H    0.9711624844    0.5600581227    0.4479855900         -0.1208
H192       H    0.0982312174    0.4735840286    0.5820980920         -0.1175
H193       H    0.1787014516    0.5140890420    0.6494009735         -0.0895
H195       H    0.1934809430    0.6719690193    0.6273549563         -0.0907
H196       H    0.1133153225    0.6315013430    0.5595390808         -0.1182
C135       C    0.5958786844    0.1918547623    0.3561331300         -0.2197
C136       C    0.5392424122    0.1654998763    0.3706610952         -0.2969
C137       C    0.5146983801    0.1157847481    0.4038203356         -0.3267
C138       C    0.5468103657    0.0923886963    0.4223369540         -0.1122
C139       C    0.6032455947    0.1181924154    0.4068767310         -0.3145
C140       C    0.6278381557    0.1680490924    0.3739127379          -0.307
C141       C    0.5224987833    0.0435059442    0.4569025574         -0.1863
C142       C    0.4664107757    0.0186606067    0.4735325204         -0.2974
C143       C    0.4423793149    0.9706518220    0.5095125551         -0.2974
C144       C    0.4745164598    0.9475679077    0.5289019541         -0.1863
C145       C    0.5303864578    0.9719025681    0.5114909808         -0.2976
C146       C    0.5543993812    0.0199022362    0.4754379776         -0.2975
C147       C    0.4508734439    0.9005160293    0.5663123438         -0.1124
C148       C    0.3949293357    0.8761983596    0.5833118590         -0.3265
C149       C    0.3714687152    0.8299608676    0.6219828874         -0.2972
C150       C    0.4040550719    0.8082114758    0.6438668691         -0.2195
C151       C    0.4598616709    0.8321208580    0.6262492681         -0.3071
C152       C    0.4832377004    0.8781993550    0.5872966242         -0.3144
H154       H    0.5155300837    0.1829529374    0.3571475142         -0.0895
H155       H    0.4728341619    0.0964351378    0.4149528814         -0.1175
H156       H    0.6269111605    0.1006016984    0.4201720865         -0.1181
H157       H    0.6697153534    0.1873984592    0.3627799793         -0.0906
H158       H    0.4427501978    0.0359724477    0.4593590527         -0.1215
H159       H    0.4009286310    0.9524081527    0.5221656037         -0.1215
H160       H    0.5540390558    0.9545515114    0.5255731951         -0.1208
H161       H    0.5958318846    0.0381116133    0.4627304789         -0.1208
H162       H    0.3709247454    0.8925185295    0.5673912694         -0.1175
H163       H    0.3301002212    0.8120295659    0.6346643248         -0.0895
H165       H    0.4838736829    0.8157910846    0.6420964638         -0.0907
H166       H    0.5245188246    0.8959669817    0.5742969805         -0.1182
C105       C    0.4040550722    0.8082114761    0.8561331309         -0.2197
C106       C    0.3848027137    0.8460756773    0.8523586062         -0.2969
C107       C    0.4067645670    0.8924411055    0.8908443573         -0.3267
C108       C    0.4479150191    0.9008536251    0.9331879772         -0.1122
C109       C    0.4664805754    0.8624584482    0.9377510079         -0.3145
C110       C    0.4446598745    0.8161958550    0.8990718981          -0.307
C111       C    0.4708662691    0.9480453043    0.9704426319         -0.1863
C112       C    0.4531542439    0.9870106623    0.9646187042         -0.2974
C113       C    0.4771212216    0.0350081351    0.0006167254         -0.2974
C114       C    0.5188616111    0.0440236696    0.0423778990         -0.1863
C115       C    0.5359786776    0.0046426558    0.0488938196         -0.2976
C116       C    0.5119471178    0.9565967329    0.0129143688         -0.2975
C117       C    0.5439053929    0.0927812467    0.0770759799         -0.1124
C118       C    0.5264260317    0.1318622514    0.0705986391         -0.3265
C119       C    0.5523216315    0.1813539541    0.1040949970         -0.2972
C120       C    0.5958786841    0.1918547620    0.1438668682         -0.2195
C121       C    0.6129112553    0.1524331859    0.1509169180         -0.3071
C122       C    0.5867905616    0.1027879200    0.1176359567         -0.3144
H124       H    0.3544893564    0.8399477664    0.8208356447         -0.0895
H125       H    0.3927949336    0.9207078252    0.8877966589         -0.1175
H126       H    0.4966356414    0.8684639645    0.9694692620         -0.1181
H127       H    0.4586379223    0.7879243606    0.9021273638         -0.0906
H128       H    0.4224162122    0.9803793956    0.9334608270         -0.1215
H129       H    0.4642732153    0.0640620525    0.9960791642         -0.1215
H130       H    0.5666532599    0.0112143240    0.0801175725         -0.1208
H131       H    0.5247513441    0.9275146043    0.0174968695         -0.1208
H132       H    0.4944114579    0.1242145481    0.0408868232         -0.1175
H133       H    0.5394663219    0.2103280987    0.0992159639         -0.0895
H135       H    0.6448780758    0.1600228896    0.1806628389         -0.0907
H136       H    0.5993926935    0.0736335999    0.1227435553         -0.1182
C75        C    0.4040557534    0.5959425004    0.8561345821         -0.2197
C76        C    0.4017936538    0.5980609038    0.9195366282         -0.2969
C77        C    0.4230897666    0.5713369476    0.9553904771         -0.3267
C78        C    0.4465504628    0.5424018450    0.9277921567         -0.1122
C79        C    0.4479200511    0.5394104138    0.8643652814         -0.3145
C80        C    0.4268134244    0.5663412013    0.8285091759          -0.307
C81        C    0.4691753761    0.5170243576    0.9637568483         -0.1863
C82        C    0.4689591467    0.5213444798    0.0271082885         -0.2974
C83        C    0.4929333796    0.4973399870    0.0631353063         -0.2974
C84        C    0.5171815250    0.4690804282    0.0357354657         -0.1863
C85        C    0.5166358916    0.4639990939    0.9724161109         -0.2976
C86        C    0.4925923592    0.4879710067    0.9363890119         -0.2975
C87        C    0.5425491507    0.4464964163    0.0717142748         -0.1124
C88        C    0.5427141130    0.4514513890    0.1349995511         -0.3265
C89        C    0.5692689051    0.4301542511    0.1711025423         -0.2972
C90        C    0.5958780029    0.4041237376    0.1438654170         -0.2195
C91        C    0.5951186747    0.3985480265    0.0805693623         -0.3071
C92        C    0.5682886098    0.4195986847    0.0444833700         -0.3144
H94        H    0.3846169085    0.6196745531    0.9399533396         -0.0895
H95        H    0.4217698052    0.5732025104    0.0023574125         -0.1175
H96        H    0.4648876303    0.5175834941    0.8439427133         -0.1181
H97        H    0.4281364208    0.5644700730    0.7815287387         -0.0906
H98        H    0.4512081500    0.5425153133    0.0472986838         -0.1215
H99        H    0.4930980547    0.5008056030    0.1100476491         -0.1215
H100       H    0.5343029820    0.4427530874    0.9522107091         -0.1208
H101       H    0.4923738751    0.4844548558    0.8894819559         -0.1208
H102       H    0.5233001608    0.4710148931    0.1551082013         -0.1175
H103       H    0.5694906058    0.4339166129    0.2179277563         -0.0895
H105       H    0.6144693975    0.3789408114    0.0604336274         -0.0907
H106       H    0.5677585041    0.4155707705    0.9976683633         -0.1182
C45        C    0.4040557540    0.5959425000    0.6438654171         -0.2197
C46        C    0.4009931493    0.5972546892    0.5804724424         -0.2969
C47        C    0.4276998951    0.5759799566    0.5445572798         -0.3267
C48        C    0.4575619487    0.5534918676    0.5720830594         -0.1122
C49        C    0.4614912443    0.5530783998    0.6354809280         -0.3145
C50        C    0.4345789698    0.5741621316    0.6714028235          -0.307
C51        C    0.4829302909    0.5308773763    0.5360872790         -0.1863
C52        C    0.4776806214    0.5301281589    0.4727928782         -0.2974
C53        C    0.5016848294    0.5061538553    0.4367655207         -0.2974
C54        C    0.5308750902    0.4828716603    0.4641093569         -0.1863
C55        C    0.5368799195    0.4843875082    0.5273544813         -0.2976
C56        C    0.5129075287    0.5084310695    0.5633807741         -0.2975
C57        C    0.5534695419    0.4574946956    0.4281619736         -0.1124
C58        C    0.5475869938    0.4563590257    0.3649452281         -0.3265
C59        C    0.5689008377    0.4297835598    0.3289016277         -0.2972
C60        C    0.5958780022    0.4041237381    0.3561345820         -0.2195
C61        C    0.6023772606    0.4058583834    0.4193483819         -0.3071
C62        C    0.5813074346    0.4327103641    0.4553690987         -0.3144
H64        H    0.3786948722    0.6137102786    0.5601137685         -0.0895
H65        H    0.4251379125    0.5765946402    0.4976044190         -0.1175
H66        H    0.4840013673    0.5368335549    0.6558406875         -0.1181
H67        H    0.4371467908    0.5735447061    0.7183691543         -0.0906
H68        H    0.4558232328    0.5471633125    0.4526490169         -0.1215
H69        H    0.4975336645    0.5052728498    0.3899020854         -0.1215
H70        H    0.5588120168    0.4674369276    0.5475115517         -0.1208
H71        H    0.5171087358    0.5093661322    0.6102377459         -0.1208
H72        H    0.5273254948    0.4750689382    0.3448461824         -0.1175
H73        H    0.5644529124    0.4288429908    0.2821293303         -0.0895
H75        H    0.6226822539    0.3872122449    0.4394733029         -0.0907
H76        H    0.5860182057    0.4339607057    0.5021247154         -0.1182
loop_
_geom_bond_atom_site_label_1
_geom_bond_atom_site_label_2
_geom_bond_distance
_geom_bond_site_symmetry_2
_ccdc_geom_bond_type
O1         Al16 1.762       .   S
O1           C7 1.272       .   A
O2         Al17 1.762       .   S
O2           C8 1.272       .   A
O3         Al18 1.762       .   S
O3           C9 1.272       .   A
O4         Al18 1.762       .   S
O4           C7 1.272       .   A
O5         Al17 1.762       .   S
O5           C9 1.272       .   A
O6         Al16 1.762       .   S
O6           C8 1.272       .   A
C7         C150 1.540       .   S
C8         C180 1.540       .   S
C9          C45 1.540       .   S
O10        Al16 1.762       .   S
O10         C20 1.272       .   A
O11        Al17 1.762       .   S
O11         C21 1.272       .   A
O12        Al18 1.762       .   S
O12         C22 1.272       .   A
O13        Al18 1.762       .   S
O13         C20 1.272       .   A
O14        Al17 1.762       .   S
O14         C22 1.272       .   A
O15        Al16 1.762       .   S
O15         C21 1.272       .   A
Al16        O19 1.735       .   S
Al17        O19 1.735       .   S
Al18        O19 1.735       .   S
C20        C105 1.540       .   S
C21        C210 1.540       .   S
C22         C75 1.540       .   S
O23        Al38 1.762       .   S
O23         C29 1.272       .   A
O24        Al39 1.762       .   S
O24         C30 1.272       .   A
O25        Al40 1.762       .   S
O25         C31 1.272       .   A
O26        Al40 1.762       .   S
O26         C29 1.272       .   A
O27        Al39 1.762       .   S
O27         C31 1.272       .   A
O28        Al38 1.762       .   S
O28         C30 1.272       .   A
C29        C120 1.540   1_544   S
C30        C195 1.540   1_654   S
C31         C90 1.540   1_554   S
O32        Al38 1.762       .   S
O32         C42 1.272       .   A
O33        Al39 1.762       .   S
O33         C43 1.272       .   A
O34        Al40 1.762       .   S
O34         C44 1.272       .   A
O35        Al40 1.762       .   S
O35         C42 1.272       .   A
O36        Al39 1.762       .   S
O36         C44 1.272       .   A
O37        Al38 1.762       .   S
O37         C43 1.272       .   A
Al38        O41 1.735       .   S
Al39        O41 1.735       .   S
Al40        O41 1.735       .   S
C42        C135 1.540   1_545   S
C43        C165 1.540   1_655   S
C44         C60 1.540       .   S
C196       C195 1.539       .   A
C195       C200 1.540       .   A
H214       C196 1.140       .   S
C197       C196 1.540       .   A
H215       C197 1.140       .   S
C197       C198 1.540       .   A
C201       C198 1.539       .   S
C199       C198 1.540       .   A
H216       C199 1.141       .   S
C200       C199 1.541       .   A
H217       C200 1.141       .   S
C206       C201 1.539       .   A
C202       C201 1.540       .   A
H218       C202 1.140       .   S
C202       C203 1.539       .   A
H219       C203 1.140       .   S
C204       C203 1.540       .   A
C207       C204 1.539       .   S
C205       C204 1.540       .   A
H220       C205 1.140       .   S
C206       C205 1.540       .   A
H221       C206 1.140       .   S
C212       C207 1.540       .   A
C207       C208 1.539       .   A
H222       C208 1.140       .   S
C209       C208 1.540       .   A
H223       C209 1.139       .   S
C210       C209 1.540       .   A
C211       C210 1.541       .   A
C212       C211 1.541       .   A
C211       H225 1.139       .   S
C212       H226 1.139       .   S
C166       C165 1.539       .   A
C165       C170 1.540       .   A
H184       C166 1.140       .   S
C167       C166 1.540       .   A
H185       C167 1.140       .   S
C167       C168 1.540       .   A
C171       C168 1.539       .   S
C169       C168 1.540       .   A
H186       C169 1.141       .   S
C170       C169 1.541       .   A
H187       C170 1.141       .   S
C176       C171 1.539       .   A
C172       C171 1.540       .   A
H188       C172 1.140       .   S
C172       C173 1.539       .   A
H189       C173 1.140       .   S
C174       C173 1.540       .   A
C177       C174 1.539       .   S
C175       C174 1.540       .   A
H190       C175 1.140       .   S
C176       C175 1.540       .   A
H191       C176 1.140       .   S
C182       C177 1.540       .   A
C177       C178 1.539       .   A
H192       C178 1.140       .   S
C179       C178 1.540       .   A
H193       C179 1.139       .   S
C180       C179 1.540       .   A
C181       C180 1.541       .   A
C182       C181 1.541       .   A
C181       H195 1.139       .   S
C182       H196 1.139       .   S
C136       C135 1.539       .   A
C135       C140 1.540       .   A
H154       C136 1.140       .   S
C137       C136 1.540       .   A
H155       C137 1.140       .   S
C137       C138 1.540       .   A
C141       C138 1.539       .   S
C139       C138 1.540       .   A
H156       C139 1.141       .   S
C140       C139 1.541       .   A
H157       C140 1.141       .   S
C146       C141 1.539       .   A
C142       C141 1.540       .   A
H158       C142 1.140       .   S
C142       C143 1.539       .   A
H159       C143 1.140       .   S
C144       C143 1.540       .   A
C147       C144 1.539       .   S
C145       C144 1.540       .   A
H160       C145 1.140       .   S
C146       C145 1.540       .   A
H161       C146 1.140       .   S
C152       C147 1.540       .   A
C147       C148 1.539       .   A
H162       C148 1.140       .   S
C149       C148 1.540       .   A
H163       C149 1.139       .   S
C150       C149 1.540       .   A
C151       C150 1.541       .   A
C152       C151 1.541       .   A
C151       H165 1.139       .   S
C152       H166 1.139       .   S
C106       C105 1.539       .   A
C105       C110 1.540       .   A
H124       C106 1.140       .   S
C107       C106 1.540       .   A
H125       C107 1.140       .   S
C107       C108 1.540       .   A
C111       C108 1.539       .   S
C109       C108 1.540       .   A
H126       C109 1.141       .   S
C110       C109 1.541       .   A
H127       C110 1.141       .   S
C116       C111 1.539       .   A
C112       C111 1.540       .   A
H128       C112 1.140       .   S
C112       C113 1.539       .   A
H129       C113 1.140       .   S
C114       C113 1.540       .   A
C117       C114 1.539       .   S
C115       C114 1.540       .   A
H130       C115 1.140       .   S
C116       C115 1.540       .   A
H131       C116 1.140       .   S
C122       C117 1.540       .   A
C117       C118 1.539       .   A
H132       C118 1.140       .   S
C119       C118 1.540       .   A
H133       C119 1.139       .   S
C120       C119 1.540       .   A
C121       C120 1.541       .   A
C122       C121 1.541       .   A
C121       H135 1.139       .   S
C122       H136 1.139       .   S
C76         C75 1.539       .   A
C75         C80 1.540       .   A
H94         C76 1.140       .   S
C77         C76 1.540       .   A
H95         C77 1.140       .   S
C77         C78 1.540       .   A
C81         C78 1.539       .   S
C79         C78 1.540       .   A
H96         C79 1.141       .   S
C80         C79 1.541       .   A
H97         C80 1.141       .   S
C86         C81 1.539       .   A
C82         C81 1.540       .   A
H98         C82 1.140       .   S
C82         C83 1.539       .   A
H99         C83 1.140       .   S
C84         C83 1.540       .   A
C87         C84 1.539       .   S
C85         C84 1.540       .   A
H100        C85 1.140       .   S
C86         C85 1.540       .   A
H101        C86 1.140       .   S
C92         C87 1.540       .   A
C87         C88 1.539       .   A
H102        C88 1.140       .   S
C89         C88 1.540       .   A
H103        C89 1.139       .   S
C90         C89 1.540       .   A
C91         C90 1.541       .   A
C92         C91 1.541       .   A
C91        H105 1.139       .   S
C92        H106 1.139       .   S
C46         C45 1.539       .   A
C45         C50 1.540       .   A
H64         C46 1.140       .   S
C47         C46 1.540       .   A
H65         C47 1.140       .   S
C47         C48 1.540       .   A
C51         C48 1.539       .   S
C49         C48 1.540       .   A
H66         C49 1.141       .   S
C50         C49 1.541       .   A
H67         C50 1.141       .   S
C56         C51 1.539       .   A
C52         C51 1.540       .   A
H68         C52 1.140       .   S
C52         C53 1.539       .   A
H69         C53 1.140       .   S
C54         C53 1.540       .   A
C57         C54 1.539       .   S
C55         C54 1.540       .   A
H70         C55 1.140       .   S
C56         C55 1.540       .   A
H71         C56 1.140       .   S
C62         C57 1.540       .   A
C57         C58 1.539       .   A
H72         C58 1.140       .   S
C59         C58 1.540       .   A
H73         C59 1.139       .   S
C60         C59 1.540       .   A
C61         C60 1.541       .   A
C62         C61 1.541       .   A
C61         H75 1.139       .   S
C62         H76 1.139       .   S
