data_acs_v1-6c_Al_1_1-1B_1TrU
_audit_creation_date              2021-04-19
_audit_creation_method            'tobacco_3.0'
_symmetry_space_group_name_H-M    'P1'
_symmetry_Int_Tables_number       1
_symmetry_cell_setting            triclinic
loop_
_symmetry_equiv_pos_as_xyz
  x,y,z
_cell_length_a                    21.754108406320352
_cell_length_b                    21.75410838666537
_cell_length_c                    17.251154141082043
_cell_angle_alpha                 89.99999359328274
_cell_angle_beta                  90.00000476441062
_cell_angle_gamma                 120.0007880870391
loop_
_atom_site_label
_atom_site_type_symbol
_atom_site_fract_x
_atom_site_fract_y
_atom_site_fract_z
_atom_site_charge
O1         O    0.2248983490    0.6636265210    0.8226733932         -0.0545
O2         O    0.4386256484    0.7750990494    0.8226733965         -0.0545
O3         O    0.3363706980    0.5613797294    0.8226734059         -0.0545
O4         O    0.2248962919    0.5613730214    0.8226734002         -0.0545
O5         O    0.4386246620    0.6636321010    0.8226734041         -0.0545
O6         O    0.3363737414    0.7751001774    0.8226733913         -0.0545
C7         C    0.2021152655    0.6011088293    0.8483876179         -0.0545
C8         C    0.3988911684    0.7978816678    0.8483876145         -0.0545
C9         C    0.3988935705    0.6011094916    0.8483876279         -0.0545
O10        O    0.2248983469    0.6636265265    0.6773265962         -0.0545
O11        O    0.4386256462    0.7750990549    0.6773265994         -0.0545
O12        O    0.3363706958    0.5613797349    0.6773266088         -0.0545
O13        O    0.2248962898    0.5613730269    0.6773266032         -0.0545
O14        O    0.4386246599    0.6636321066    0.6773266070         -0.0545
O15        O    0.3363737393    0.7751001829    0.6773265942         -0.0545
Al16      Al    0.2872701086    0.7127381715    0.7500057912             1.0
Al17      Al    0.4253745259    0.7127394190    0.7500057982             1.0
Al18      Al    0.2872645593    0.5746316032    0.7500058007             1.0
O19        O    0.3333048339    0.6667012952    0.7500057967         -0.0545
C20        C    0.2021152625    0.6011088368    0.6516123777         -0.0545
C21        C    0.3988911655    0.7978816754    0.6516123743         -0.0545
C22        C    0.3988935676    0.6011094991    0.6516123877         -0.0545
O23        O    0.7750357137    0.3364394026    0.3226733942         -0.0545
O24        O    0.5613084144    0.2249668742    0.3226733910         -0.0545
O25        O    0.6635633647    0.4386861942    0.3226733815         -0.0545
O26        O    0.7750377708    0.4386929022    0.3226733872         -0.0545
O27        O    0.5613094007    0.3364338226    0.3226733833         -0.0545
O28        O    0.6635603213    0.2249657463    0.3226733962         -0.0545
C29        C    0.7978187980    0.3989570923    0.3483876127         -0.0545
C30        C    0.6010428951    0.2021842538    0.3483876161         -0.0545
C31        C    0.6010404930    0.3989564301    0.3483876026         -0.0545
O32        O    0.7750357115    0.3364394082    0.1773265971         -0.0545
O33        O    0.5613084122    0.2249668798    0.1773265939         -0.0545
O34        O    0.6635633626    0.4386861998    0.1773265845         -0.0545
O35        O    0.7750377686    0.4386929078    0.1773265902         -0.0545
O36        O    0.5613093985    0.3364338282    0.1773265863         -0.0545
O37        O    0.6635603191    0.2249657518    0.1773265991         -0.0545
Al38      Al    0.7126639520    0.2873277577    0.2500057926           0.995
Al39      Al    0.5745595347    0.2873265102    0.2500057856             1.0
Al40      Al    0.7126695012    0.4254343259    0.2500057831             1.0
O41        O    0.6666292267    0.3333646339    0.2500057871         -0.0545
C42        C    0.7978187951    0.3989570998    0.1516123725         -0.0545
C43        C    0.6010428922    0.2021842613    0.1516123759         -0.0545
C44        C    0.6010404900    0.3989564376    0.1516123624         -0.0545
C105       C    0.9999228782    0.4999841419    0.9999273725         -0.0545
C106       C    0.9266047426    0.4724860436    0.9622041241         -0.0545
C107       C    0.8592456922    0.4388140773    0.0127825818         -0.0545
C108       C    0.1347341783    0.5674177033    0.8989238336         -0.0545
C109       C    0.9385162206    0.4601272445    0.1387965499         -0.0545
C110       C    0.0058743723    0.4937896710    0.0882166645         -0.0545
C111       C    0.0673078003    0.5336908209    0.9493914332         -0.0545
C112       C    0.8651998823    0.4326482258    0.1010761568         -0.0545
H113       H    0.9221672059    0.4770322685    0.8968494898         -0.0545
H114       H    0.8049521597    0.4184391490    0.9848755480         -0.0545
H115       H    0.9429226721    0.4555500907    0.2041420169         -0.0545
H116       H    0.0601652087    0.5141359799    0.1161194153         -0.0545
C93        C    0.9999705337    0.5001085047    0.4999920099         -0.0545
C94        C    0.0567225876    0.5786192992    0.4886115873         -0.0545
C95        C    0.1241002985    0.6122707308    0.5391603765         -0.0545
C96        C    0.8651998805    0.4326482189    0.3989238273         -0.0545
C97        C    0.0779722956    0.4889125783    0.6124722205         -0.0545
C98        C    0.0105896694    0.4552639779    0.5619312487         -0.0545
C99        C    0.9325943317    0.4664118849    0.4494421999         -0.0545
C100       C    0.1347341801    0.5674177102    0.6010761631         -0.0545
H101       H    0.0488748033    0.6118454903    0.4427926532         -0.0545
H102       H    0.1661258453    0.6703984232    0.5307614806         -0.0545
H103       H    0.0858344846    0.4557194587    0.6583085118         -0.0545
H104       H    0.9685493767    0.3971447793    0.5703535967         -0.0545
C81        C    0.4998927734    0.0000326616    0.5000019299         -0.0545
C82        C    0.4533971806    0.0143757899    0.4439472299         -0.0545
C83        C    0.4871302164    0.0817640016    0.3934151337         -0.0545
C84        C    0.4325829799    0.8652651574    0.6010751253         -0.0545
C85        C    0.6138430541    0.1204681688    0.4549962998         -0.0545
C86        C    0.5801082086    0.0530852198    0.5055367634         -0.0545
C87        C    0.4662034628    0.9326408639    0.5505269439         -0.0545
C88        C    0.5673510807    0.1348007717    0.3989248651         -0.0545
H89        H    0.3940125218    0.9751369218    0.4398506948         -0.0545
H90        H    0.4527238502    0.0924087431    0.3519149010         -0.0545
H91        H    0.6732133747    0.1597288621    0.4590872782         -0.0545
H92        H    0.6145091458    0.0424562665    0.5470620982         -0.0545
C69        C    0.4998944218    0.0000004712    0.0000492489         -0.0545
C70        C    0.4527900972    0.0262307994    0.0372011522         -0.0545
C71        C    0.4865226358    0.0936286273    0.0877179451         -0.0545
C72        C    0.4325829889    0.8652651665    0.8989248745         -0.0545
C73        C    0.6144529206    0.1085586266    0.0639419918         -0.0545
C74        C    0.5807191442    0.0411548948    0.0134345885         -0.0545
C75        C    0.4662042579    0.9326254280    0.9494976042         -0.0545
C76        C    0.5673510717    0.1348007627    0.1010751159         -0.0545
H77        H    0.3929558709    0.9957710666    0.0273372839         -0.0545
H78        H    0.4516662595    0.1130610799    0.1152441284         -0.0545
H79        H    0.6742737667    0.1390214776    0.0738411644         -0.0545
H80        H    0.6155718069    0.0217047304    0.9859365740         -0.0545
C57        C    0.4998913450    0.4999611956    0.0000086367         -0.0545
C58        C    0.4351107926    0.4526550510    0.9489312523         -0.0545
C59        C    0.4014578576    0.4863874178    0.8983958044         -0.0545
C60        C    0.5673492295    0.4326487205    0.1010747458         -0.0545
C61        C    0.4973524421    0.6147214033    0.9500201045         -0.0545
C62        C    0.5309989064    0.5809880614    0.0005642901         -0.0545
C63        C    0.5335921506    0.4662705361    0.0505329053         -0.0545
C64        C    0.4325848310    0.5674172087    0.8989252446         -0.0545
H65        H    0.4120458888    0.3926718718    0.9485224658         -0.0545
H66        H    0.3534896180    0.4513819176    0.8605801387         -0.0545
H67        H    0.5203811837    0.6746916663    0.9504255931         -0.0545
H68        H    0.5789477339    0.6159906365    0.0384061691         -0.0545
C45        C    0.5000044380    0.5000238472    0.5000763938         -0.0545
C46        C    0.5720435731    0.5080108346    0.5230668986         -0.0545
C47        C    0.6057093605    0.4743169127    0.4724907696         -0.0545
C48        C    0.4325848421    0.5674172006    0.6010747431         -0.0545
C49        C    0.4953000774    0.4246438881    0.3759472185         -0.0545
C50        C    0.4616292871    0.4583288834    0.4265295855         -0.0545
C51        C    0.4663208484    0.5337293551    0.5506044107         -0.0545
C52        C    0.5673492184    0.4326487285    0.3989252473         -0.0545
H53        H    0.6004581771    0.5388443658    0.5775189391         -0.0545
H54        H    0.6590389133    0.4802085701    0.4894974729         -0.0545
H55        H    0.4669009029    0.3937914777    0.3215094721         -0.0545
H56        H    0.4082847254    0.4524104463    0.4095415964         -0.0545
loop_
_geom_bond_atom_site_label_1
_geom_bond_atom_site_label_2
_geom_bond_distance
_geom_bond_site_symmetry_2
_ccdc_geom_bond_type
O1         Al16 1.762       .   S
O1           C7 1.272       .   A
O2         Al17 1.762       .   S
O2           C8 1.272       .   A
O3         Al18 1.762       .   S
O3           C9 1.272       .   A
O4         Al18 1.762       .   S
O4           C7 1.272       .   A
O5         Al17 1.762       .   S
O5           C9 1.272       .   A
O6         Al16 1.762       .   S
O6           C8 1.272       .   A
C7         C108 1.540       .   S
C8          C72 1.540       .   S
C9          C64 1.540       .   S
O10        Al16 1.762       .   S
O10         C20 1.272       .   A
O11        Al17 1.762       .   S
O11         C21 1.272       .   A
O12        Al18 1.762       .   S
O12         C22 1.272       .   A
O13        Al18 1.762       .   S
O13         C20 1.272       .   A
O14        Al17 1.762       .   S
O14         C22 1.272       .   A
O15        Al16 1.762       .   S
O15         C21 1.272       .   A
Al16        O19 1.735       .   S
Al17        O19 1.735       .   S
Al18        O19 1.735       .   S
C20        C100 1.540       .   S
C21         C84 1.540       .   S
C22         C48 1.540       .   S
O23        Al38 1.762       .   S
O23         C29 1.272       .   A
O24        Al39 1.762       .   S
O24         C30 1.272       .   A
O25        Al40 1.762       .   S
O25         C31 1.272       .   A
O26        Al40 1.762       .   S
O26         C29 1.272       .   A
O27        Al39 1.762       .   S
O27         C31 1.272       .   A
O28        Al38 1.762       .   S
O28         C30 1.272       .   A
C29         C96 1.540   1_655   S
C30         C88 1.540   1_545   S
C31         C52 1.540       .   S
O32        Al38 1.762       .   S
O32         C42 1.272       .   A
O33        Al39 1.762       .   S
O33         C43 1.272       .   A
O34        Al40 1.762       .   S
O34         C44 1.272       .   A
O35        Al40 1.762       .   S
O35         C42 1.272       .   A
O36        Al39 1.762       .   S
O36         C44 1.272       .   A
O37        Al38 1.762       .   S
O37         C43 1.272       .   A
Al38        O41 1.735       .   S
Al39        O41 1.735       .   S
Al40        O41 1.735       .   S
C42        C112 1.540   1_654   S
C43         C76 1.540   1_544   S
C44         C60 1.540   1_554   S
C105       C106 1.540       .   A
C105       C110 1.540       .   A
C105       C111 1.540       .   S
C106       C107 1.540       .   A
C106       H113 1.140       .   S
C107       C112 1.540       .   A
C107       H114 1.140       .   S
C111       C108 1.540       .   T
C112       C109 1.540       .   A
C109       C110 1.540       .   A
C109       H115 1.140       .   S
C110       H116 1.140       .   S
C93         C94 1.540       .   A
C93         C98 1.540       .   A
C93         C99 1.540       .   S
C94         C95 1.540       .   A
C94        H101 1.140       .   S
C95        C100 1.540       .   A
C95        H102 1.140       .   S
C99         C96 1.540       .   T
C100        C97 1.540       .   A
C97         C98 1.540       .   A
C97        H103 1.140       .   S
C98        H104 1.140       .   S
C81         C82 1.540       .   A
C81         C86 1.540       .   A
C81         C87 1.540       .   S
C82         C83 1.540       .   A
C82         H89 1.140       .   S
C83         C88 1.540       .   A
C83         H90 1.140       .   S
C87         C84 1.540       .   T
C88         C85 1.540       .   A
C85         C86 1.540       .   A
C85         H91 1.140       .   S
C86         H92 1.140       .   S
C69         C70 1.540       .   A
C69         C74 1.540       .   A
C69         C75 1.540       .   S
C70         C71 1.540       .   A
C70         H77 1.140       .   S
C71         C76 1.540       .   A
C71         H78 1.140       .   S
C75         C72 1.540       .   T
C76         C73 1.540       .   A
C73         C74 1.540       .   A
C73         H79 1.140       .   S
C74         H80 1.140       .   S
C57         C58 1.540       .   A
C57         C62 1.540       .   A
C57         C63 1.540       .   S
C58         C59 1.540       .   A
C58         H65 1.140       .   S
C59         C64 1.540       .   A
C59         H66 1.140       .   S
C63         C60 1.540       .   T
C64         C61 1.540       .   A
C61         C62 1.540       .   A
C61         H67 1.140       .   S
C62         H68 1.140       .   S
C45         C46 1.540       .   A
C45         C50 1.540       .   A
C45         C51 1.540       .   S
C46         C47 1.540       .   A
C46         H53 1.140       .   S
C47         C52 1.540       .   A
C47         H54 1.140       .   S
C51         C48 1.540       .   T
C52         C49 1.540       .   A
C49         C50 1.540       .   A
C49         H55 1.140       .   S
C50         H56 1.140       .   S
