data_acs_v1-6c_Al_1_Ch_1-1B_2TrU_4H_Ch
_audit_creation_date              2021-04-19
_audit_creation_method            'tobacco_3.0'
_symmetry_space_group_name_H-M    'P1'
_symmetry_Int_Tables_number       1
_symmetry_cell_setting            triclinic
loop_
_symmetry_equiv_pos_as_xyz
  x,y,z
_cell_length_a                    26.089006581883158
_cell_length_b                    26.0045946815688
_cell_length_c                    21.384368289018642
_cell_angle_alpha                 89.40496617939361
_cell_angle_beta                  90.35515468793051
_cell_angle_gamma                 119.57691273251676
loop_
_atom_site_label
_atom_site_type_symbol
_atom_site_fract_x
_atom_site_fract_y
_atom_site_fract_z
_atom_site_charge
O1         O    0.3335489476    0.7564216492    0.8170848540         -0.8054
C2         C    0.3854705856    0.6128210841    0.6650669614          0.9881
O3         O    0.4219621361    0.6549868128    0.6941650142         -0.6966
O4         O    0.4228345623    0.7539466013    0.6828492348         -0.7325
Al5       Al    0.4145339432    0.7061486188    0.7532866979          1.4898
C6         C    0.3917842249    0.7764652668    0.6666604898          0.9407
O7         O    0.2469781797    0.6665574664    0.6780021551         -0.7947
O8         O    0.2435102667    0.5788347814    0.8231408706 -0.7306999999999999
Al9       Al    0.2939991067    0.7071039175    0.7473007870          1.9012
O10        O    0.2329067168    0.5753902518    0.6971260482          -0.721
O11        O    0.3442753782    0.5750064147    0.8138381996         -0.7195
O12        O    0.3324609091    0.5768539392    0.6859066970         -0.7761
O13        O    0.4225295726    0.6656785355    0.8203674307         -0.7581
O14        O    0.3330829489    0.6656692559    0.7520992362         -1.1194
O15        O    0.4228637173    0.7671034682    0.8095804043         -0.7114
C16        C    0.3870019202    0.7789817655    0.8330866876          0.9958
C17        C    0.2228435736    0.6110664717    0.6676676560          0.9597
Al18      Al    0.2934084076    0.5848307820    0.7548660762          1.5556
O19        O    0.3443145061    0.7665246119    0.6893144174         -0.7576
C20        C    0.3932288235    0.6107180288    0.8349874771          1.0014
C21        C    0.2194708722    0.6101473832    0.8325307280          0.9502
O22        O    0.2330887278    0.6580337305    0.8018897658         -0.8108
O23        O    0.7569224379    0.3339732735    0.1826931554         -0.8054
C24        C    0.6135412393    0.3859148837    0.3349463155          0.9881
O25        O    0.6557028571    0.4225724125    0.3056483654         -0.6966
O26        O    0.7541985686    0.4231950151    0.3167102580         -0.7325
Al27      Al    0.7068274561    0.4152020909    0.2464147977          1.4898
C28        C    0.7764973631    0.3919057150    0.3329204424          0.9407
O29        O    0.6667869584    0.2467480900    0.3222248245         -0.7947
O30        O    0.5799270776    0.2439500297    0.1773168043         -0.7303
Al31      Al    0.7074953415    0.2941211581    0.2527034129          1.9012
O32        O    0.5760477693    0.2328787644    0.3033683315          -0.721
O33        O    0.5763036528    0.3451295324    0.1863742531         -0.7195
O34        O    0.5776843980    0.3328240584    0.3143320780         -0.7761
O35        O    0.6667767725    0.4235488529    0.1794162060         -0.7581
O36        O    0.6663412783    0.3334811855    0.2479114174         -1.1194
O37        O    0.7677275897    0.4236272785    0.1899444315         -0.7114
C38        C    0.7795558588    0.3876639215    0.1664984900          0.9958
C39        C    0.6114481375    0.2225940467    0.3327616831          0.9597
Al40      Al    0.5857749578    0.2938194034    0.2454506451          1.5556
O41        O    0.7665727612    0.3443285269    0.3104117574         -0.7576
C42        C    0.6120393382    0.3942900519    0.1650100268          1.0014
C43        C    0.6110836788    0.2197701239    0.1679080433          0.9502
O44        O    0.6586890778    0.2332387170    0.1983929714         -0.8108
C115       C    0.0493085712    0.5239155495    0.9496880945          0.1828
C116       C    0.0189427255    0.5597506765    0.9669653158         -0.1084
C117       C    0.9637657716    0.5317759297    0.0088637785         -0.1168
C118       C    0.9389900293    0.4680135232    0.0334094388          0.1985
C119       C    0.9681977925    0.4315152259    0.0144154573         -0.1372
C120       C    0.0233809171    0.4594944109    0.9725582616           -0.12
C121       C    0.8863789960    0.4415462477    0.0788232932          0.0081
C122       C    0.8342899862    0.4153452640    0.1249462959         -0.3201
C123       C    0.1067898139    0.5531254765    0.9114932131          0.0218
C124       C    0.1647367448    0.5824660407    0.8740829221         -0.3368
H125       H    0.0377352903    0.6071900428    0.9494708519          0.1324
H126       H    0.9417616005    0.5585526580    0.0223693172          0.1307
H127       H    0.9494557492    0.3841202072    0.0319850497          0.1292
H128       H    0.0455026207    0.4327686657    0.9591946011          0.1195
C101       C    0.9464593724    0.4826798751    0.4553109154          0.1828
C102       C    0.0054627122    0.4922267787    0.4292585769         -0.1084
C103       C    0.0608926772    0.5194684763    0.4709258751         -0.1168
C104       C    0.0572886841    0.5371643588    0.5385618914          0.1985
C105       C    0.9987453648    0.5294418283    0.5639161919         -0.1372
C106       C    0.9433216296    0.5021749183    0.5222721008           -0.12
C107       C    0.1116485007    0.5604955375    0.5815599378          0.0081
C108       C    0.1657654400    0.5830404985    0.6248606472         -0.3201
C109       C    0.8901377512    0.4516842088    0.4152888840          0.0218
C110       C    0.8335754967    0.4199316883    0.3757274513         -0.3368
H111       H    0.0079405795    0.4784156530    0.3794842674          0.1324
H112       H    0.1043721877    0.5257858097    0.4519539968          0.1307
H113       H    0.9962565060    0.5431707836    0.6137074599          0.1292
H114       H    0.8997776742    0.4956905046    0.5413088279          0.1195
C87        C    0.4705434420    0.9384762964    0.5335607610          0.1828
C88        C    0.5319714224    0.9608321907    0.5047070671         -0.1084
C89        C    0.5593917300    0.0166603591    0.4629419308         -0.1168
C90        C    0.5253701525    0.0500516542    0.4500392893          0.1985
C91        C    0.4631265495    0.0265633947    0.4771881965         -0.1372
C92        C    0.4357277643    0.9707697687    0.5189726659           -0.12
C93        C    0.5544878569    0.1081298972    0.4119557471          0.0081
C94        C    0.5839089699    0.1666630789    0.3746224288         -0.3201
C95        C    0.4448109231    0.8851623982    0.5788170213          0.0218
C96        C    0.4193233924    0.8323962346    0.6247997441         -0.3368
H97        H    0.5574579444    0.9365621936    0.5149272329          0.1324
H98        H    0.6051835147    0.0336860301    0.4422869052          0.1307
H99        H    0.4376905557    0.0508820289    0.4670412706          0.1292
H100       H    0.3899866333    0.9538312740    0.5397915910          0.1195
C73        C    0.4724850041    0.9496903073    0.9507973660          0.1828
C74        C    0.5395524030    0.9830819296    0.9619895166         -0.1084
C75        C    0.5674900916    0.0381710583    0.0038565083         -0.1168
C76        C    0.5283681059    0.0598351952    0.0344525544          0.1985
C77        C    0.4615709936    0.0276048741    0.0215671564         -0.1372
C78        C    0.4336357387    0.9725094927    0.9797410116           -0.12
C79        C    0.5557192769    0.1123546085    0.0797799819          0.0081
C80        C    0.5829093902    0.1643488415    0.1258102234         -0.3201
C81        C    0.4439499564    0.8922843961    0.9125955427          0.0218
C82        C    0.4151762089    0.8344030479    0.8751845075         -0.3368
H83        H    0.5683871802    0.9665902769    0.9400093973          0.1324
H84        H    0.6170051211    0.0624123984    0.0128504592          0.1307
H85        H    0.4327401623    0.0440467826    0.0436195409          0.1292
H86        H    0.3840736672    0.9481494404    0.9708886848          0.1195
C59        C    0.4703039096    0.5223952756    0.9526211168          0.1828
C60        C    0.4373475941    0.4865247492    0.0111282369         -0.1084
C61        C    0.4654553244    0.4588182644    0.0533747929         -0.1168
C62        C    0.5264463405    0.4669685416    0.0370732147          0.1985
C63        C    0.5585097261    0.5011615844    0.9774343730         -0.1372
C64        C    0.5304251313    0.5288905796    0.9352187911           -0.12
C65        C    0.5563269224    0.4428405914    0.0816390902          0.0081
C66        C    0.5866000390    0.4194523530    0.1266410189         -0.3201
C67        C    0.4442186442    0.5535937847    0.9127782917          0.0218
C68        C    0.4186681226    0.5855557277    0.8733564851         -0.3368
H69        H    0.3925680572    0.4811558231    0.0236259352          0.1324
H70        H    0.4414519603    0.4329653058    0.0971411859          0.1307
H71        H    0.6033148233    0.5065983390    0.9649981463          0.1292
H72        H    0.5545141344    0.5549055643    0.8915302114          0.1195
C45        C    0.5200643171    0.4631288599    0.4603895288          0.1828
C46        C    0.4808434884    0.4853950945    0.4300495013         -0.1084
C47        C    0.4527600601    0.5133608343    0.4708189093         -0.1168
C48        C    0.4638833038    0.5190050269    0.5418602206          0.1985
C49        C    0.5014909986    0.4949427114    0.5724706793         -0.1372
C50        C    0.5295957026    0.4670160162    0.5317071072           -0.12
C51        C    0.4392408671    0.5506966106    0.5819188155          0.0081
C52        C    0.4153129129    0.5831311219    0.6218717138         -0.3201
C53        C    0.5515096867    0.4389789256    0.4192397978          0.0218
C54        C    0.5836989121    0.4156048459    0.3781415631         -0.3368
H55        H    0.4732498333    0.4819182971    0.3773766059          0.1324
H56        H    0.4244017490    0.5305856382    0.4482741174          0.1307
H57        H    0.5091486779    0.4985017307    0.6251163981          0.1292
H58        H    0.5581113977    0.4499401527    0.5542325555          0.1195
loop_
_geom_bond_atom_site_label_1
_geom_bond_atom_site_label_2
_geom_bond_distance
_geom_bond_site_symmetry_2
_ccdc_geom_bond_type
O1          C16 1.264       .   A
O1          Al9 1.910       .   S
C2          O12 1.307       .   A
C2           O3 1.213       .   A
C2          C52 1.635       .   S
O3          Al5 1.923       .   S
O4          Al5 1.887       .   S
O4           C6 1.257       .   A
Al5         O13 1.841       .   S
Al5         O14 1.849       .   S
Al5         O15 1.925       .   S
C6          O19 1.234       .   A
C6          C96 1.543       .   S
O7          Al9 1.883       .   S
O7          C17 1.279       .   A
O8         Al18 1.915       .   S
O8          C21 1.267       .   A
Al9         O14 1.814       .   S
Al9         O22 1.873       .   S
Al9         O19 1.904       .   S
O10        Al18 1.918       .   S
O10         C17 1.246       .   A
O11         C20 1.236       .   A
O11        Al18 1.930       .   S
O12        Al18 1.868       .   S
O13         C20 1.281       .   A
O14        Al18 1.829       .   S
O15         C16 1.232       .   A
C16         C82 1.549       .   S
C17        C108 1.585       .   S
C20         C68 1.397       .   S
C21         O22 1.287       .   A
C21        C124 1.528       .   S
O23         C38 1.264       .   A
O23        Al31 1.910       .   S
C24         O34 1.307       .   A
C24         O25 1.213       .   A
C24         C54 1.635       .   S
O25        Al27 1.923       .   S
O26        Al27 1.887       .   S
O26         C28 1.257       .   A
Al27        O35 1.841       .   S
Al27        O36 1.849       .   S
Al27        O37 1.925       .   S
C28         O41 1.234       .   A
C28        C110 1.585   1_655   S
O29        Al31 1.883       .   S
O29         C39 1.279       .   A
O30        Al40 1.915       .   S
O30         C43 1.267       .   A
Al31        O36 1.814       .   S
Al31        O44 1.873       .   S
Al31        O41 1.904       .   S
O32        Al40 1.918       .   S
O32         C39 1.246       .   A
O33         C42 1.236       .   A
O33        Al40 1.930       .   S
O34        Al40 1.868       .   S
O35         C42 1.281       .   A
O36        Al40 1.829       .   S
O37         C38 1.232       .   A
C38        C122 1.528   1_654   S
C39         C94 1.543   1_545   S
C42         C66 1.397   1_554   S
C43         O44 1.287       .   A
C43         C80 1.549   1_544   S
C123       C115 1.540       .   S
C116       C115 1.540       .   A
C115       C120 1.540       .   A
H125       C116 1.139       .   S
C117       C116 1.540       .   A
H126       C117 1.140       .   S
C117       C118 1.540       .   A
C121       C118 1.540       .   S
C119       C118 1.540       .   A
H127       C119 1.139       .   S
C120       C119 1.540       .   A
H128       C120 1.140       .   S
C122       C121 1.540       .   T
C123       C124 1.540       .   T
C109       C101 1.540       .   S
C102       C101 1.540       .   A
C101       C106 1.540       .   A
H111       C102 1.139       .   S
C103       C102 1.540       .   A
H112       C103 1.140       .   S
C103       C104 1.540       .   A
C107       C104 1.540       .   S
C105       C104 1.540       .   A
H113       C105 1.139       .   S
C106       C105 1.540       .   A
H114       C106 1.140       .   S
C108       C107 1.540       .   T
C109       C110 1.540       .   T
C95         C87 1.540       .   S
C88         C87 1.540       .   A
C87         C92 1.540       .   A
H97         C88 1.139       .   S
C89         C88 1.540       .   A
H98         C89 1.140       .   S
C89         C90 1.540       .   A
C93         C90 1.540       .   S
C91         C90 1.540       .   A
H99         C91 1.139       .   S
C92         C91 1.540       .   A
H100        C92 1.140       .   S
C94         C93 1.540       .   T
C95         C96 1.540       .   T
C81         C73 1.540       .   S
C74         C73 1.540       .   A
C73         C78 1.540       .   A
H83         C74 1.139       .   S
C75         C74 1.540       .   A
H84         C75 1.140       .   S
C75         C76 1.540       .   A
C79         C76 1.540       .   S
C77         C76 1.540       .   A
H85         C77 1.139       .   S
C78         C77 1.540       .   A
H86         C78 1.140       .   S
C80         C79 1.540       .   T
C81         C82 1.540       .   T
C67         C59 1.540       .   S
C60         C59 1.540       .   A
C59         C64 1.540       .   A
H69         C60 1.139       .   S
C61         C60 1.540       .   A
H70         C61 1.140       .   S
C61         C62 1.540       .   A
C65         C62 1.540       .   S
C63         C62 1.540       .   A
H71         C63 1.139       .   S
C64         C63 1.540       .   A
H72         C64 1.140       .   S
C66         C65 1.540       .   T
C67         C68 1.540       .   T
C53         C45 1.540       .   S
C46         C45 1.540       .   A
C45         C50 1.540       .   A
H55         C46 1.139       .   S
C47         C46 1.540       .   A
H56         C47 1.140       .   S
C47         C48 1.540       .   A
C51         C48 1.540       .   S
C49         C48 1.540       .   A
H57         C49 1.139       .   S
C50         C49 1.540       .   A
H58         C50 1.140       .   S
C52         C51 1.540       .   T
C53         C54 1.540       .   T
