data_acs_v1-6c_Al_1_1-3B_4H_Ch
_audit_creation_date              2021-06-09
_audit_creation_method            'tobacco_3.0'
_symmetry_space_group_name_H-M    'P1'
_symmetry_Int_Tables_number       1
_symmetry_cell_setting            triclinic
loop_
_symmetry_equiv_pos_as_xyz
  x,y,z
_cell_length_a                    30.524850029283463
_cell_length_b                    30.52485034729803
_cell_length_c                    24.206421067438388
_cell_angle_alpha                 90.00000020346597
_cell_angle_beta                  90.00000005206743
_cell_angle_gamma                 120.00070725538569
loop_
_atom_site_label
_atom_site_type_symbol
_atom_site_fract_x
_atom_site_fract_y
_atom_site_fract_z
_atom_site_charge
O1         O    0.3354903065    0.7439544416    0.6982079572          0.7946
O2         O    0.2560474697    0.5916377908    0.6982079568          0.7946
O3         O    0.4083584407    0.6645115500    0.6982079571          0.7946
O4         O    0.4083631563    0.7439558485    0.6982079572          0.7946
O5         O    0.3354864544    0.5916384293    0.6982079569          0.7946
O6         O    0.2560466062    0.6645095046    0.6982079570          0.7946
C7         C    0.3800446830    0.7601911918    0.6798822412          0.7946
C8         C    0.2398109909    0.6199553167    0.6798822408          0.7946
C9         C    0.3800443257    0.6199534910    0.6798822409          0.7946
O10        O    0.3354903067    0.7439544418    0.8017920431          0.7946
O11        O    0.2560474698    0.5916377910    0.8017920428          0.7946
O12        O    0.4083584408    0.6645115502    0.8017920430          0.7946
O13        O    0.4083631564    0.7439558487    0.8017920432          0.7946
O14        O    0.3354864545    0.5916384295    0.8017920428          0.7946
O15        O    0.2560466064    0.6645095048    0.8017920429          0.7946
Al16      Al    0.3004900178    0.6995040806    0.7499958689             1.0
Al17      Al    0.3004892093    0.6010814118    0.7499958687             1.0
Al18      Al    0.3989142208    0.6995079555    0.7499958690             1.0
O19        O    0.3332990769    0.6666965550    0.7499958689          0.7946
C20        C    0.3800446832    0.7601911921    0.8201177593          0.7946
C21        C    0.2398109911    0.6199553170    0.8201177589          0.7946
C22        C    0.3800443259    0.6199534913    0.8201177590          0.7946
O23        O    0.6644434518    0.2561117993    0.1982079558          0.7946
O24        O    0.7438862886    0.4084284501    0.1982079562          0.7946
O25        O    0.5915753176    0.3355546908    0.1982079559          0.7946
O26        O    0.5915706020    0.2561103924    0.1982079558          0.7946
O27        O    0.6644473039    0.4084278116    0.1982079561          0.7946
O28        O    0.7438871521    0.3355567362    0.1982079560          0.7946
C29        C    0.6198890752    0.2398750489    0.1798822396          0.7946
C30        C    0.7601227673    0.3801109241    0.1798822400          0.7946
C31        C    0.6198894325    0.3801127498    0.1798822399          0.7946
O32        O    0.6644434519    0.2561117995    0.3017920417          0.7946
O33        O    0.7438862888    0.4084284503    0.3017920421          0.7946
O34        O    0.5915753178    0.3355546911    0.3017920419          0.7946
O35        O    0.5915706022    0.2561103926    0.3017920417          0.7946
O36        O    0.6644473041    0.4084278118    0.3017920421          0.7946
O37        O    0.7438871522    0.3355567365    0.3017920419          0.7946
Al38      Al    0.6994437406    0.3005621605    0.2499958677             1.0
Al39      Al    0.6994445492    0.3989848293    0.2499958680             1.0
Al40      Al    0.6010195376    0.3005582856    0.2499958677             1.0
O41        O    0.6666346815    0.3333696860    0.2499958678          0.7946
C42        C    0.6198890754    0.2398750493    0.3201177578          0.7946
C43        C    0.7601227675    0.3801109244    0.3201177581          0.7946
C44        C    0.6198894327    0.3801127501    0.3201177581          0.7946
C195       C    0.1917890833    0.5959443350    0.8561340209         -0.2197
C196       C    0.1402106031    0.5817953988    0.8305515548         -0.2969
C197       C    0.0918487571    0.5549717768    0.8658627700         -0.3267
C198       C    0.0950925068    0.5422108436    0.9267418573         -0.1122
C199       C    0.1465440289    0.5554441891    0.9520666377         -0.3145
C200       C    0.1949489961    0.5824821339    0.9167941513          -0.307
C201       C    0.0468791090    0.5167716962    0.9623718607         -0.1863
C202       C    0.9957738087    0.5049167095    0.9372433706         -0.2974
C203       C    0.9477559192    0.4809004969    0.9732089270         -0.2974
C204       C    0.9509201114    0.4688245037    0.0343379257         -0.1863
C205       C    0.0018650108    0.4798714671    0.0592424107         -0.2976
C206       C    0.0498876393    0.5038458037    0.0232259187         -0.2975
C207       C    0.9031997662    0.4463073814    0.0706853271         -0.1124
C208       C    0.8523332394    0.4350829153    0.0454669925         -0.3265
C209       C    0.8047629046    0.4138672797    0.0820185490         -0.2972
C210       C    0.8081446751    0.4041219061    0.1438659780         -0.2195
C211       C    0.8589037799    0.4147020779    0.1689446599         -0.3071
C212       C    0.9064247210    0.4356485073    0.1322857746         -0.3144
H214       H    0.1378556673    0.5914482821    0.7855394043         -0.0895
H215       H    0.0536756769    0.5448143433    0.8470623307         -0.1175
H216       H    0.1488652665    0.5455694343    0.9970258750         -0.1181
H217       H    0.2331299921    0.5926388032    0.9356073528         -0.0906
H218       H    0.9935681773    0.5141319770    0.8920333224         -0.1215
H219       H    0.9099422694    0.4724140387    0.9547418975         -0.1215
H220       H    0.0040725030    0.4705790296    0.1044265250         -0.1208
H221       H    0.0876889067    0.5122771761    0.0416733389         -0.1208
H222       H    0.8499296851    0.4426171614    0.9997720321         -0.1175
H223       H    0.7671423013    0.4056639993    0.0633901650         -0.0875
H225       H    0.8613279048    0.4071244273    0.2146142090         -0.0907
H226       H    0.9440022582    0.4435612615    0.1507877431         -0.1182
C165       C    0.8081446749    0.4041219061    0.3561340200         -0.2197
C166       C    0.8038908417    0.3978844716    0.4193342171         -0.2969
C167       C    0.8520753716    0.4192840917    0.4549272798         -0.3267
C168       C    0.9045146359    0.4468296965    0.4272609964         -0.1122
C169       C    0.9088024155    0.4522057598    0.3639509806         -0.3145
C170       C    0.8605885620    0.4309881310    0.3283747144          -0.307
C171       C    0.9526007361    0.4695044529    0.4630933663         -0.1863
C172       C    0.9480625861    0.4652354832    0.5264473055         -0.2974
C173       C    0.9960427446    0.4892077066    0.5624728601         -0.2974
C174       C    0.0485498361    0.5175086290    0.5350751721         -0.1863
C175       C    0.0531335035    0.5210401307    0.4716798797         -0.2976
C176       C    0.0051197598    0.4969987317    0.4356492575         -0.2975
C177       C    0.0964176700    0.5428272499    0.5711881012         -0.1124
C178       C    0.0915953277    0.5389145006    0.6345244405         -0.3265
C179       C    0.1392889210    0.5653656376    0.6708801070         -0.2972
C180       C    0.1917890836    0.5959443349    0.6438659789         -0.2195
C181       C    0.1966745278    0.5992855534    0.5804604374         -0.3071
C182       C    0.1489680071    0.5725658639    0.5440965320         -0.3144
H184       H    0.7650566148    0.3776777994    0.4398197807         -0.0895
H185       H    0.8489638608    0.4150106683    0.5017762195         -0.1175
H186       H    0.9476535189    0.4722111040    0.3434392441         -0.1181
H187       H    0.8637087133    0.4352658233    0.2815122095         -0.0906
H188       H    0.9091274779    0.4444797666    0.5466579491         -0.1215
H189       H    0.9927224912    0.4863636706    0.6094156561         -0.1215
H190       H    0.0920646787    0.5417151963    0.4514465937         -0.1208
H191       H    0.0084399120    0.4997903012    0.3887067009         -0.1208
H192       H    0.0527035215    0.5165547675    0.6544959759         -0.1175
H193       H    0.1357184054    0.5625669822    0.7177525386         -0.0895
H195       H    0.2355500299    0.6215846487    0.5604567040         -0.0907
H196       H    0.1525131229    0.5750635135    0.4972065450         -0.1182
C135       C    0.4040550727    0.8082114779    0.6438668674         -0.2197
C136       C    0.3955894193    0.8525889380    0.6579983545         -0.2969
C137       C    0.4221666119    0.9017412134    0.6239440678         -0.3267
C138       C    0.4573009252    0.9065210507    0.5758239923         -0.1122
C139       C    0.4665876588    0.8625231088    0.5623518076         -0.3145
C140       C    0.4398144909    0.8132701030    0.5962757565          -0.307
C141       C    0.4826000328    0.9551304198    0.5408236567         -0.1863
C142       C    0.4720536692    0.9984225680    0.5535277658         -0.2974
C143       C    0.4960537620    0.0464400364    0.5175615405         -0.2974
C144       C    0.5305454885    0.0510786624    0.4688404910         -0.1863
C145       C    0.5418043143    0.0081603089    0.4566997221         -0.2976
C146       C    0.5178311357    0.9601496381    0.4927352282         -0.2975
C147       C    0.5532120945    0.0984008463    0.4318599410         -0.1124
C148       C    0.5420495297    0.1412960769    0.4444024166         -0.3265
C149       C    0.5634844918    0.1880943446    0.4066231328         -0.2972
C150       C    0.5958786857    0.1918547632    0.3561331315         -0.2195
C151       C    0.6076284749    0.1492433225    0.3440107661         -0.3071
C152       C    0.5864206826    0.1025645789    0.3820088988         -0.3144
H154       H    0.3693992453    0.8489506996    0.6934802314         -0.0895
H155       H    0.4156229231    0.9344918881    0.6341218609         -0.1175
H156       H    0.4929792912    0.8662561777    0.5270200553         -0.1181
H157       H    0.4463655672    0.7805140336    0.5860892101         -0.0906
H158       H    0.4462879742    0.9947937120    0.5894598815         -0.1215
H159       H    0.4879994365    0.0783884877    0.5267018020         -0.1215
H160       H    0.5676412184    0.0118108764    0.4208310246         -0.1208
H161       H    0.5259321321    0.9282275918    0.4836368746         -0.1208
H162       H    0.5177969487    0.1383352424    0.4815669874         -0.1175
H163       H    0.5551352079    0.2197893304    0.4158286714         -0.0895
H165       H    0.6319227451    0.1522001650    0.3068979695         -0.0907
H166       H    0.5950142872    0.0709898184    0.3730524729         -0.1182
C105       C    0.4040550721    0.8082114767    0.8561331316         -0.2197
C106       C    0.4285960927    0.8086731663    0.9118349098         -0.2969
C107       C    0.4552909689    0.8576688627    0.9461381831         -0.3267
C108       C    0.4575201800    0.9062293285    0.9246398917         -0.1122
C109       C    0.4338594080    0.9060684329    0.8684039955         -0.3145
C110       C    0.4069594608    0.8569841080    0.8342118160          -0.307
C111       C    0.4829010642    0.9547298935    0.9598132442         -0.1863
C112       C    0.5052396619    0.9542682112    0.0166848891         -0.2974
C113       C    0.5292621330    0.0022559055    0.0526984605         -0.2974
C114       C    0.5308522260    0.0506705449    0.0318084821         -0.1863
C115       C    0.5092976143    0.0514108585    0.9745248221         -0.2976
C116       C    0.4853193517    0.0034069515    0.9384785599         -0.2975
C117       C    0.5534250481    0.0981175100    0.0685906100         -0.1124
C118       C    0.5751718878    0.0972263884    0.1256756034         -0.3265
C119       C    0.5965215290    0.1441381770    0.1632743707         -0.2972
C120       C    0.5958786863    0.1918547644    0.1438668673         -0.2195
C121       C    0.5747481503    0.1929909857    0.0864232877         -0.3071
C122       C    0.5536637572    0.1461480574    0.0486862349         -0.3144
H124       H    0.4267451633    0.7726512743    0.9278483435         -0.0895
H125       H    0.4731521584    0.8579485578    0.9875945638         -0.1175
H126       H    0.4359227410    0.9421705925    0.8522635942         -0.1181
H127       H    0.3890958772    0.8567120326    0.7927434934         -0.0906
H128       H    0.5037869947    0.9182905835    0.0321926163         -0.1215
H129       H    0.5455162961    0.0018616249    0.0949884381         -0.1215
H130       H    0.5108230925    0.0874080665    0.9589570657         -0.1208
H131       H    0.4691194866    0.0038174892    0.8961628114         -0.1208
H132       H    0.5753314891    0.0617848559    0.1401606599         -0.1175
H133       H    0.6125137198    0.1434465425    0.2055688610         -0.0895
H135       H    0.5746279692    0.2284315449    0.0718816566         -0.0907
H136       H    0.5379577217    0.1469042558    0.0062311429         -0.1182
C75        C    0.4040557536    0.5959425006    0.8561345822         -0.2197
C76        C    0.3954652150    0.5430355983    0.8420996748         -0.2969
C77        C    0.4220386278    0.5204531055    0.8761472827         -0.3267
C78        C    0.4572939964    0.5508637354    0.9241638191         -0.1122
C79        C    0.4667043623    0.6042097123    0.9375374313         -0.3145
C80        C    0.4399352397    0.6266975104    0.9036206210          -0.307
C81        C    0.4825910195    0.5275497295    0.9591606533         -0.1863
C82        C    0.4719227076    0.4736533732    0.9465579802         -0.2974
C83        C    0.4959225277    0.4496360274    0.9825238706         -0.2974
C84        C    0.5305361487    0.4795472422    0.0311431854         -0.1863
C85        C    0.5419157644    0.5337800805    0.0431808591         -0.2976
C86        C    0.5179427340    0.5578173727    0.0071456138         -0.2975
C87        C    0.5532045617    0.4548957005    0.0681265129         -0.1124
C88        C    0.5419205494    0.4007813789    0.0556867934         -0.3265
C89        C    0.5633587290    0.3754254191    0.0934719160         -0.2972
C90        C    0.5958780048    0.4041237404    0.1438654167         -0.2195
C91        C    0.6077484230    0.4585398069    0.1558836200         -0.3071
C92        C    0.5865369653    0.4840026378    0.1178791202         -0.3144
H94        H    0.3691857249    0.5204426478    0.8066948595         -0.0895
H95        H    0.4154029796    0.4811124534    0.8660416992         -0.1175
H96        H    0.4931850231    0.6269087017    0.9727916357         -0.1181
H97        H    0.4465783108    0.6660509601    0.9137349259         -0.0906
H98        H    0.4460672032    0.4514742021    0.9107016023         -0.1215
H99        H    0.4877784059    0.4095912944    0.9734593221         -0.1215
H100       H    0.5678423792    0.5560085323    0.0789736283         -0.1208
H101       H    0.5261334370    0.5978822166    0.0161681489         -0.1208
H102       H    0.5175758778    0.3794427128    0.0185942389         -0.1175
H103       H    0.5549197312    0.3353396046    0.0843426229         -0.0895
H105       H    0.6321347301    0.4799240149    0.1929242627         -0.0907
H106       H    0.5952197911    0.5242116952    0.1267587193         -0.1182
C45        C    0.5958780050    0.4041237407    0.3561345815         -0.2197
C46        C    0.5628873194    0.4233905084    0.3294714747         -0.2969
C47        C    0.5364191410    0.4445290680    0.3659825465         -0.3267
C48        C    0.5428794173    0.4462846337    0.4291848726         -0.1122
C49        C    0.5750581794    0.4260878838    0.4559798865         -0.3145
C50        C    0.6017150189    0.4051499529    0.4194199491          -0.307
C51        C    0.5176079294    0.4688438408    0.4654225824         -0.1863
C52        C    0.4866500003    0.4902600932    0.4382754615         -0.2974
C53        C    0.4626234177    0.5142471674    0.4742469317         -0.2974
C54        C    0.4696527456    0.5168554831    0.5373745680         -0.1863
C55        C    0.4998803832    0.4946584057    0.5646330829         -0.2976
C56        C    0.5238631437    0.4706089259    0.5286326907         -0.2975
C57        C    0.4469725181    0.5422814076    0.5731076964         -0.1124
C58        C    0.4165520396    0.5641385819    0.5456445546         -0.3265
C59        C    0.3949758383    0.5908637991    0.5810328239         -0.2972
C60        C    0.4040557534    0.5959425004    0.6438654174         -0.2195
C61        C    0.4339099348    0.5734575751    0.6714574299         -0.3071
C62        C    0.4552358033    0.5464594477    0.6360762703         -0.3144
H64        H    0.5582924814    0.4222853146    0.2826549044         -0.0895
H65        H    0.5122795121    0.4591554708    0.3462385130         -0.1175
H66        H    0.5794577847    0.4269728504    0.5028368688         -0.1181
H67        H    0.6258596678    0.3905200940    0.4391776356         -0.0906
H68        H    0.4817117088    0.4885197200    0.3914874574         -0.1215
H69        H    0.4399696493    0.5304282347    0.4541553893         -0.1215
H70        H    0.5047529754    0.4963090633    0.6114303820         -0.1208
H71        H    0.5464655939    0.4543745299    0.5487275095         -0.1208
H72        H    0.4101307124    0.5606590337    0.4990936280         -0.1175
H73        H    0.3725588619    0.6071386593    0.5607003509         -0.0895
H75        H    0.4402974797    0.5768678058    0.7180067405         -0.0907
H76        H    0.4773830458    0.5298787465    0.6564082185         -0.1182
loop_
_geom_bond_atom_site_label_1
_geom_bond_atom_site_label_2
_geom_bond_distance
_geom_bond_site_symmetry_2
_ccdc_geom_bond_type
O1         Al16 1.762       .   S
O1           C7 1.272       .   A
O2         Al17 1.762       .   S
O2           C8 1.272       .   A
O3         Al18 1.762       .   S
O3           C9 1.272       .   A
O4         Al18 1.762       .   S
O4           C7 1.272       .   A
O5         Al17 1.762       .   S
O5           C9 1.272       .   A
O6         Al16 1.762       .   S
O6           C8 1.272       .   A
C7         C135 1.540       .   S
C8         C180 1.540       .   S
C9          C60 1.540       .   S
O10        Al16 1.762       .   S
O10         C20 1.272       .   A
O11        Al17 1.762       .   S
O11         C21 1.272       .   A
O12        Al18 1.762       .   S
O12         C22 1.272       .   A
O13        Al18 1.762       .   S
O13         C20 1.272       .   A
O14        Al17 1.762       .   S
O14         C22 1.272       .   A
O15        Al16 1.762       .   S
O15         C21 1.272       .   A
Al16        O19 1.735       .   S
Al17        O19 1.735       .   S
Al18        O19 1.735       .   S
C20        C105 1.540       .   S
C21        C195 1.540       .   S
C22         C75 1.540       .   S
O23        Al38 1.762       .   S
O23         C29 1.272       .   A
O24        Al39 1.762       .   S
O24         C30 1.272       .   A
O25        Al40 1.762       .   S
O25         C31 1.272       .   A
O26        Al40 1.762       .   S
O26         C29 1.272       .   A
O27        Al39 1.762       .   S
O27         C31 1.272       .   A
O28        Al38 1.762       .   S
O28         C30 1.272       .   A
C29        C120 1.540   1_544   S
C30        C210 1.540   1_654   S
C31         C90 1.540   1_554   S
O32        Al38 1.762       .   S
O32         C42 1.272       .   A
O33        Al39 1.762       .   S
O33         C43 1.272       .   A
O34        Al40 1.762       .   S
O34         C44 1.272       .   A
O35        Al40 1.762       .   S
O35         C42 1.272       .   A
O36        Al39 1.762       .   S
O36         C44 1.272       .   A
O37        Al38 1.762       .   S
O37         C43 1.272       .   A
Al38        O41 1.735       .   S
Al39        O41 1.735       .   S
Al40        O41 1.735       .   S
C42        C150 1.540   1_545   S
C43        C165 1.540   1_655   S
C44         C45 1.540       .   S
C196       C195 1.539       .   A
C195       C200 1.540       .   A
H214       C196 1.140       .   S
C197       C196 1.540       .   A
H215       C197 1.140       .   S
C197       C198 1.540       .   A
C201       C198 1.539       .   S
C199       C198 1.540       .   A
H216       C199 1.141       .   S
C200       C199 1.541       .   A
H217       C200 1.141       .   S
C206       C201 1.539       .   A
C202       C201 1.540       .   A
H218       C202 1.140       .   S
C202       C203 1.539       .   A
H219       C203 1.140       .   S
C204       C203 1.540       .   A
C207       C204 1.539       .   S
C205       C204 1.540       .   A
H220       C205 1.140       .   S
C206       C205 1.540       .   A
H221       C206 1.140       .   S
C212       C207 1.540       .   A
C207       C208 1.539       .   A
H222       C208 1.140       .   S
C209       C208 1.540       .   A
H223       C209 1.139       .   S
C210       C209 1.540       .   A
C211       C210 1.541       .   A
C212       C211 1.541       .   A
C211       H225 1.139       .   S
C212       H226 1.139       .   S
C166       C165 1.539       .   A
C165       C170 1.540       .   A
H184       C166 1.140       .   S
C167       C166 1.540       .   A
H185       C167 1.140       .   S
C167       C168 1.540       .   A
C171       C168 1.539       .   S
C169       C168 1.540       .   A
H186       C169 1.141       .   S
C170       C169 1.541       .   A
H187       C170 1.141       .   S
C176       C171 1.539       .   A
C172       C171 1.540       .   A
H188       C172 1.140       .   S
C172       C173 1.539       .   A
H189       C173 1.140       .   S
C174       C173 1.540       .   A
C177       C174 1.539       .   S
C175       C174 1.540       .   A
H190       C175 1.140       .   S
C176       C175 1.540       .   A
H191       C176 1.140       .   S
C182       C177 1.540       .   A
C177       C178 1.539       .   A
H192       C178 1.140       .   S
C179       C178 1.540       .   A
H193       C179 1.139       .   S
C180       C179 1.540       .   A
C181       C180 1.541       .   A
C182       C181 1.541       .   A
C181       H195 1.139       .   S
C182       H196 1.139       .   S
C136       C135 1.539       .   A
C135       C140 1.540       .   A
H154       C136 1.140       .   S
C137       C136 1.540       .   A
H155       C137 1.140       .   S
C137       C138 1.540       .   A
C141       C138 1.539       .   S
C139       C138 1.540       .   A
H156       C139 1.141       .   S
C140       C139 1.541       .   A
H157       C140 1.141       .   S
C146       C141 1.539       .   A
C142       C141 1.540       .   A
H158       C142 1.140       .   S
C142       C143 1.539       .   A
H159       C143 1.140       .   S
C144       C143 1.540       .   A
C147       C144 1.539       .   S
C145       C144 1.540       .   A
H160       C145 1.140       .   S
C146       C145 1.540       .   A
H161       C146 1.140       .   S
C152       C147 1.540       .   A
C147       C148 1.539       .   A
H162       C148 1.140       .   S
C149       C148 1.540       .   A
H163       C149 1.139       .   S
C150       C149 1.540       .   A
C151       C150 1.541       .   A
C152       C151 1.541       .   A
C151       H165 1.139       .   S
C152       H166 1.139       .   S
C106       C105 1.539       .   A
C105       C110 1.540       .   A
H124       C106 1.140       .   S
C107       C106 1.540       .   A
H125       C107 1.140       .   S
C107       C108 1.540       .   A
C111       C108 1.539       .   S
C109       C108 1.540       .   A
H126       C109 1.141       .   S
C110       C109 1.541       .   A
H127       C110 1.141       .   S
C116       C111 1.539       .   A
C112       C111 1.540       .   A
H128       C112 1.140       .   S
C112       C113 1.539       .   A
H129       C113 1.140       .   S
C114       C113 1.540       .   A
C117       C114 1.539       .   S
C115       C114 1.540       .   A
H130       C115 1.140       .   S
C116       C115 1.540       .   A
H131       C116 1.140       .   S
C122       C117 1.540       .   A
C117       C118 1.539       .   A
H132       C118 1.140       .   S
C119       C118 1.540       .   A
H133       C119 1.139       .   S
C120       C119 1.540       .   A
C121       C120 1.541       .   A
C122       C121 1.541       .   A
C121       H135 1.139       .   S
C122       H136 1.139       .   S
C76         C75 1.539       .   A
C75         C80 1.540       .   A
H94         C76 1.140       .   S
C77         C76 1.540       .   A
H95         C77 1.140       .   S
C77         C78 1.540       .   A
C81         C78 1.539       .   S
C79         C78 1.540       .   A
H96         C79 1.141       .   S
C80         C79 1.541       .   A
H97         C80 1.141       .   S
C86         C81 1.539       .   A
C82         C81 1.540       .   A
H98         C82 1.140       .   S
C82         C83 1.539       .   A
H99         C83 1.140       .   S
C84         C83 1.540       .   A
C87         C84 1.539       .   S
C85         C84 1.540       .   A
H100        C85 1.140       .   S
C86         C85 1.540       .   A
H101        C86 1.140       .   S
C92         C87 1.540       .   A
C87         C88 1.539       .   A
H102        C88 1.140       .   S
C89         C88 1.540       .   A
H103        C89 1.139       .   S
C90         C89 1.540       .   A
C91         C90 1.541       .   A
C92         C91 1.541       .   A
C91        H105 1.139       .   S
C92        H106 1.139       .   S
C46         C45 1.539       .   A
C45         C50 1.540       .   A
H64         C46 1.140       .   S
C47         C46 1.540       .   A
H65         C47 1.140       .   S
C47         C48 1.540       .   A
C51         C48 1.539       .   S
C49         C48 1.540       .   A
H66         C49 1.141       .   S
C50         C49 1.541       .   A
H67         C50 1.141       .   S
C56         C51 1.539       .   A
C52         C51 1.540       .   A
H68         C52 1.140       .   S
C52         C53 1.539       .   A
H69         C53 1.140       .   S
C54         C53 1.540       .   A
C57         C54 1.539       .   S
C55         C54 1.540       .   A
H70         C55 1.140       .   S
C56         C55 1.540       .   A
H71         C56 1.140       .   S
C62         C57 1.540       .   A
C57         C58 1.539       .   A
H72         C58 1.140       .   S
C59         C58 1.540       .   A
H73         C59 1.139       .   S
C60         C59 1.540       .   A
C61         C60 1.541       .   A
C62         C61 1.541       .   A
C61         H75 1.139       .   S
C62         H76 1.139       .   S
