# generated using pymatgen
data_Al3H36C60O13
_symmetry_space_group_name_H-M   'P 1'
_cell_length_a   24.20642114
_cell_length_b   30.52452359
_cell_length_c   30.52484986
_cell_angle_alpha   60.00035462
_cell_angle_beta   90.00000016
_cell_angle_gamma   89.99999992
_symmetry_Int_Tables_number   1
_chemical_formula_structural   Al3H36C60O13
_chemical_formula_sum   'Al6 H72 C120 O26'
_cell_volume   19532.83130290
_cell_formula_units_Z   2
loop_
 _symmetry_equiv_pos_site_id
 _symmetry_equiv_pos_as_xyz
  1  'x, y, z'
loop_
 _atom_site_type_symbol
 _atom_site_label
 _atom_site_symmetry_multiplicity
 _atom_site_fract_x
 _atom_site_fract_y
 _atom_site_fract_z
 _atom_site_occupancy
  Al  Al0  1  0.25000413  0.30049592  0.39901406  1
  Al  Al1  1  0.25000413  0.39891859  0.30059220  1
  Al  Al2  1  0.25000413  0.30049204  0.30059373  1
  Al  Al3  1  0.75000413  0.69943784  0.60111842  1
  Al  Al4  1  0.75000413  0.60101517  0.69954028  1
  Al  Al5  1  0.75000413  0.69944172  0.69953875  1
  H  H6  1  0.93888947  0.60452240  0.62983572  1
  H  H7  1  0.00035955  0.55788393  0.59226096  1
  H  H8  1  0.84367831  0.53236306  0.52013383  1
  H  H9  1  0.78228051  0.57943420  0.55734044  1
  H  H10  1  0.04517718  0.52718842  0.56275252  1
  H  H11  1  0.10794383  0.48547546  0.52087609  1
  H  H12  1  0.95140036  0.45740019  0.45050604  1
  H  H13  1  0.88864862  0.49909846  0.49242509  1
  H  H14  1  0.15304507  0.45568467  0.49069901  1
  H  H15  1  0.21677561  0.41874114  0.44492584  1
  H  H16  1  0.06126696  0.39391807  0.37104164  1
  H  H17  1  0.99748996  0.43035915  0.41730603  1
  H  H18  1  0.62811562  0.67132379  0.52089827  1
  H  H19  1  0.57033562  0.62836419  0.47732414  1
  H  H20  1  0.59459147  0.47082050  0.62049534  1
  H  H21  1  0.65195955  0.51387417  0.66425351  1
  H  H22  1  0.52594712  0.59809651  0.44711802  1
  H  H23  1  0.46313500  0.55633821  0.40531553  1
  H  H24  1  0.48917174  0.39815295  0.54712444  1
  H  H25  1  0.55201441  0.43994188  0.58889564  1
  H  H26  1  0.41790191  0.52641597  0.37535281  1
  H  H27  1  0.35059903  0.48591096  0.33538759  1
  H  H28  1  0.37264504  0.32803098  0.47848808  1
  H  H29  1  0.44046092  0.36849866  0.51818602  1
  H  H30  1  0.64285249  0.81704706  0.66742285  1
  H  H31  1  0.58504712  0.90356486  0.62360098  1
  H  H32  1  0.57982791  0.89939830  0.47369054  1
  H  H33  1  0.63722002  0.81260154  0.51768311  1
  H  H34  1  0.54064095  0.96402755  0.59322225  1
  H  H35  1  0.47783440  0.04759185  0.55147952  1
  H  H36  1  0.47442680  0.04544849  0.40051246  1
  H  H37  1  0.53726952  0.96188839  0.44227973  1
  H  H38  1  0.43260873  0.10748147  0.52159378  1
  H  H39  1  0.36533568  0.18797043  0.48192934  1
  H  H40  1  0.35790354  0.18420892  0.33191740  1
  H  H41  1  0.42570302  0.10403302  0.37144816  1
  H  H42  1  0.17916436  0.16005223  0.48545841  1
  H  H43  1  0.11220334  0.07929217  0.52791289  1
  H  H44  1  0.03053074  0.13153604  0.37182832  1
  H  H45  1  0.09787264  0.21207564  0.32928644  1
  H  H46  1  0.06653917  0.01962060  0.55796318  1
  H  H47  1  0.00392084  0.93593795  0.59978884  1
  H  H48  1  0.91988243  0.98878568  0.44456106  1
  H  H49  1  0.98250313  0.07248540  0.40276326  1
  H  H50  1  0.95911318  0.87578545  0.62980309  1
  H  H51  1  0.90078404  0.78967190  0.67086178  1
  H  H52  1  0.81933716  0.83997711  0.51514481  1
  H  H53  1  0.87725644  0.92636640  0.47424091  1
  H  H54  1  0.06004666  0.38032545  0.23505764  1
  H  H55  1  0.99764259  0.42679749  0.15143271  1
  H  H56  1  0.15605729  0.48241651  0.05269586  1
  H  H57  1  0.21847126  0.43552993  0.13633365  1
  H  H58  1  0.95270132  0.45748469  0.09130716  1
  H  H59  1  0.88995235  0.49919440  0.00770755  1
  H  H60  1  0.04778929  0.55724691  0.90845011  1
  H  H61  1  0.11051804  0.51554514  0.99208098  1
  H  H62  1  0.84489180  0.52898511  0.94771473  1
  H  H63  1  0.78207224  0.56608339  0.86442601  1
  H  H64  1  0.93956637  0.62105919  0.76447141  1
  H  H65  1  0.00233164  0.58442923  0.84781227  1
  H  H66  1  0.43988623  0.38628972  0.23501541  1
  H  H67  1  0.50239558  0.42340536  0.15145673  1
  H  H68  1  0.34415931  0.46316645  0.05283219  1
  H  H69  1  0.28163085  0.42645529  0.13639792  1
  H  H70  1  0.54735098  0.45283669  0.09134008  1
  H  H71  1  0.61009791  0.49472715  0.00773919  1
  H  H72  1  0.45248845  0.53256307  0.90862491  1
  H  H73  1  0.38976225  0.49063387  0.99225740  1
  H  H74  1  0.65515382  0.52493106  0.94774344  1
  H  H75  1  0.71787067  0.57115701  0.86439008  1
  H  H76  1  0.56052670  0.61278776  0.76452999  1
  H  H77  1  0.49787528  0.56603929  0.84794250  1
  C  C78  1  0.32011776  0.23980881  0.38014651  1
  C  C79  1  0.32011776  0.38004468  0.38014433  1
  C  C80  1  0.32011776  0.38004651  0.23990917  1
  C  C81  1  0.17988224  0.23980881  0.38014651  1
  C  C82  1  0.17988224  0.38004468  0.38014433  1
  C  C83  1  0.17988224  0.38004651  0.23990917  1
  C  C84  1  0.82011776  0.76012495  0.61998597  1
  C  C85  1  0.82011776  0.61988908  0.61998816  1
  C  C86  1  0.82011776  0.61988725  0.76022332  1
  C  C87  1  0.67988224  0.76012495  0.61998597  1
  C  C88  1  0.67988224  0.61988908  0.61998816  1
  C  C89  1  0.67988224  0.61988725  0.76022332  1
  C  C90  1  0.85613402  0.59587810  0.59597723  1
  C  C91  1  0.91866333  0.58927934  0.60640776  1
  C  C92  1  0.95397290  0.56245557  0.58486864  1
  C  C93  1  0.92668448  0.54213969  0.55298298  1
  C  C94  1  0.86395272  0.54782759  0.54337109  1
  C  C95  1  0.82868066  0.57486557  0.56473834  1
  C  C96  1  0.96237263  0.51670552  0.53024031  1
  C  C97  1  0.02527811  0.51239404  0.53880781  1
  C  C98  1  0.06130163  0.48838280  0.51483761  1
  C  C99  1  0.03435750  0.46875994  0.48223872  1
  C  C100  1  0.97133035  0.47227217  0.47437443  1
  C  C101  1  0.93529614  0.49624498  0.49841310  1
  C  C102  1  0.07061645  0.44623524  0.45698745  1
  C  C103  1  0.13355646  0.44256494  0.46523076  1
  C  C104  1  0.17018611  0.42135599  0.43891848  1
  C  C105  1  0.14386598  0.40405567  0.40415525  1
  C  C106  1  0.08079325  0.40708227  0.39645259  1
  C  C107  1  0.04412758  0.42802811  0.42302341  1
  C  C108  1  0.64386598  0.59587810  0.59597723  1
  C  C109  1  0.62087670  0.62869916  0.54212324  1
  C  C110  1  0.58772943  0.60403113  0.51706863  1
  C  C111  1  0.57769171  0.54650257  0.54586814  1
  C  C112  1  0.60161171  0.51349671  0.59935673  1
  C  C113  1  0.63456300  0.53822097  0.62449711  1
  C  C114  1  0.54312662  0.52218806  0.52129958  1
  C  C115  1  0.51803374  0.55557423  0.46839103  1
  C  C116  1  0.48204843  0.53160107  0.44435872  1
  C  C117  1  0.47112573  0.47422650  0.47332404  1
  C  C118  1  0.49699305  0.44069186  0.52587453  1
  C  C119  1  0.53304768  0.46468504  0.54987999  1
  C  C120  1  0.43371811  0.45055663  0.44994028  1
  C  C121  1  0.40824157  0.48423590  0.39727517  1
  C  C122  1  0.36955203  0.46097334  0.37431186  1
  C  C123  1  0.35613402  0.40405567  0.40415525  1
  C  C124  1  0.38223058  0.37021851  0.45656875  1
  C  C125  1  0.42119600  0.39345711  0.47940063  1
  C  C126  1  0.64386687  0.80814524  0.59597608  1
  C  C127  1  0.62933890  0.83450012  0.62625746  1
  C  C128  1  0.59617966  0.88421525  0.60108637  1
  C  C129  1  0.57766305  0.90761130  0.54557833  1
  C  C130  1  0.59312327  0.88180758  0.51494682  1
  C  C131  1  0.62608726  0.83195091  0.54021094  1
  C  C132  1  0.54309744  0.95649406  0.52100716  1
  C  C133  1  0.52646748  0.98133939  0.55224983  1
  C  C134  1  0.49048744  0.02934818  0.52827251  1
  C  C135  1  0.47109805  0.05243209  0.47305145  1
  C  C136  1  0.48850902  0.02809743  0.44151611  1
  C  C137  1  0.52456202  0.98009776  0.46550285  1
  C  C138  1  0.43368766  0.09948397  0.44964259  1
  C  C139  1  0.41668814  0.12380164  0.48126902  1
  C  C140  1  0.37801711  0.17003913  0.45849215  1
  C  C141  1  0.35613313  0.19178852  0.40415640  1
  C  C142  1  0.37375073  0.16787914  0.37225919  1
  C  C143  1  0.41270338  0.12180064  0.39496165  1
  C  C144  1  0.14386687  0.19178852  0.40415640  1
  C  C145  1  0.14764139  0.15392432  0.46127296  1
  C  C146  1  0.10915564  0.10755889  0.48567654  1
  C  C147  1  0.06681202  0.09914637  0.45293861  1
  C  C148  1  0.06224899  0.13754155  0.39597787  1
  C  C149  1  0.10092810  0.18380415  0.37153598  1
  C  C150  1  0.02955737  0.05195470  0.47717904  1
  C  C151  1  0.03538130  0.01298934  0.53385642  1
  C  C152  1  0.99938327  0.96499186  0.55788691  1
  C  C153  1  0.95762210  0.95597633  0.52516206  1
  C  C154  1  0.95110618  0.99535734  0.46866398  1
  C  C155  1  0.98708563  0.04340327  0.44464962  1
  C  C156  1  0.92292402  0.90721875  0.54887585  1
  C  C157  1  0.92940136  0.86813775  0.60543622  1
  C  C158  1  0.89590500  0.81864605  0.62903232  1
  C  C159  1  0.85613313  0.80814524  0.59597608  1
  C  C160  1  0.84908308  0.84756681  0.53952193  1
  C  C161  1  0.88236404  0.89721208  0.51599736  1
  C  C162  1  0.14386542  0.40405750  0.19188675  1
  C  C163  1  0.08046337  0.40193910  0.19626725  1
  C  C164  1  0.04460952  0.42866305  0.14824718  1
  C  C165  1  0.07220784  0.45759816  0.09585138  1
  C  C166  1  0.13563472  0.46058959  0.09149036  1
  C  C167  1  0.17149082  0.43365880  0.13952778  1
  C  C168  1  0.03624315  0.48297564  0.04784898  1
  C  C169  1  0.97289171  0.47865552  0.05238533  1
  C  C170  1  0.93686469  0.50266001  0.00440661  1
  C  C171  1  0.96426453  0.53091957  0.95189890  1
  C  C172  1  0.02758389  0.53600091  0.94736320  1
  C  C173  1  0.06361099  0.51202899  0.99537865  1
  C  C174  1  0.92828573  0.55350358  0.90394727  1
  C  C175  1  0.86500045  0.54854861  0.90873728  1
  C  C176  1  0.82889746  0.56984575  0.86088535  1
  C  C177  1  0.85613458  0.59587626  0.80824573  1
  C  C178  1  0.91943064  0.60145197  0.80342935  1
  C  C179  1  0.95551663  0.58040132  0.85131007  1
  C  C180  1  0.35613458  0.40405750  0.19188675  1
  C  C181  1  0.41952756  0.40274531  0.19626154  1
  C  C182  1  0.45544272  0.42402004  0.14828006  1
  C  C183  1  0.42791694  0.44650813  0.09592992  1
  C  C184  1  0.36451907  0.44692160  0.09158716  1
  C  C185  1  0.32859718  0.42583787  0.13958316  1
  C  C186  1  0.46391272  0.46912262  0.04794709  1
  C  C187  1  0.52720712  0.46987184  0.05244754  1
  C  C188  1  0.56323448  0.49384614  0.00446903  1
  C  C189  1  0.53589064  0.51712834  0.95199657  1
  C  C190  1  0.47264552  0.51561249  0.94750759  1
  C  C191  1  0.43661923  0.49156893  0.99552354  1
  C  C192  1  0.57183803  0.54250530  0.90402515  1
  C  C193  1  0.63505477  0.54364097  0.90877203  1
  C  C194  1  0.67109837  0.57021644  0.86088272  1
  C  C195  1  0.64386542  0.59587626  0.80824574  1
  C  C196  1  0.58065162  0.59414162  0.80348112  1
  C  C197  1  0.54463090  0.56728964  0.85140293  1
  O  O198  1  0.30179204  0.25604556  0.40846414  1
  O  O199  1  0.30179204  0.40836221  0.33559032  1
  O  O200  1  0.30179204  0.33548845  0.25615311  1
  O  O201  1  0.30179204  0.25604415  0.33559269  1
  O  O202  1  0.30179204  0.40836157  0.25615198  1
  O  O203  1  0.30179204  0.33549050  0.40846290  1
  O  O204  1  0.19820796  0.25604556  0.40846413  1
  O  O205  1  0.19820796  0.40836221  0.33559032  1
  O  O206  1  0.19820796  0.33548845  0.25615311  1
  O  O207  1  0.19820796  0.25604415  0.33559269  1
  O  O208  1  0.19820796  0.40836157  0.25615197  1
  O  O209  1  0.19820796  0.33549050  0.40846290  1
  O  O210  1  0.25000413  0.33333333  0.33336759  1
  O  O211  1  0.80179204  0.74388820  0.59166835  1
  O  O212  1  0.80179204  0.59157155  0.66454216  1
  O  O213  1  0.80179204  0.66444531  0.74397937  1
  O  O214  1  0.80179204  0.74388961  0.66453979  1
  O  O215  1  0.80179204  0.59157219  0.74398051  1
  O  O216  1  0.80179204  0.66444327  0.59166958  1
  O  O217  1  0.69820796  0.74388820  0.59166835  1
  O  O218  1  0.69820796  0.59157155  0.66454216  1
  O  O219  1  0.69820796  0.66444531  0.74397937  1
  O  O220  1  0.69820796  0.74388961  0.66453979  1
  O  O221  1  0.69820796  0.59157219  0.74398051  1
  O  O222  1  0.69820796  0.66444327  0.59166958  1
  O  O223  1  0.75000413  0.66663032  0.66670302  1
