# generated using pymatgen
data_Al3H12C24O13
_symmetry_space_group_name_H-M   'P 1'
_cell_length_a   13.76381800
_cell_length_b   17.35627662
_cell_length_c   17.35650294
_cell_angle_alpha   60.00042988
_cell_angle_beta   90.00000862
_cell_angle_gamma   89.99999985
_symmetry_Int_Tables_number   1
_chemical_formula_structural   Al3H12C24O13
_chemical_formula_sum   'Al6 H24 C48 O26'
_cell_volume   3590.79179200
_cell_formula_units_Z   2
loop_
 _symmetry_equiv_pos_site_id
 _symmetry_equiv_pos_as_xyz
  1  'x, y, z'
loop_
 _atom_site_type_symbol
 _atom_site_label
 _atom_site_symmetry_multiplicity
 _atom_site_fract_x
 _atom_site_fract_y
 _atom_site_fract_z
 _atom_site_occupancy
  Al  Al0  1  0.24999275  0.27559719  0.44879524  1
  Al  Al1  1  0.24999273  0.27559550  0.27570103  1
  Al  Al2  1  0.24999273  0.44869579  0.27570372  1
  Al  Al3  1  0.74999272  0.72433713  0.55133611  1
  Al  Al4  1  0.74999274  0.72433882  0.72443032  1
  Al  Al5  1  0.74999274  0.55123853  0.72442763  1
  H  H6  1  0.19392894  0.49989544  0.51394791  1
  H  H7  1  0.91630395  0.42655169  0.41270024  1
  H  H8  1  0.80607105  0.50003888  0.48618344  1
  H  H9  1  0.08369605  0.57338263  0.58743112  1
  H  H10  1  0.39906785  0.60387987  0.35147986  1
  H  H11  1  0.49070094  0.32256913  0.57516535  1
  H  H12  1  0.60093215  0.39605445  0.64865150  1
  H  H13  1  0.50929906  0.67736519  0.42496601  1
  H  H14  1  0.30720483  0.98687136  0.48820601  1
  H  H15  1  0.58256399  0.16003446  0.43843948  1
  H  H16  1  0.69279517  0.01306296  0.51192535  1
  H  H17  1  0.41743601  0.83989986  0.56169188  1
  H  H18  1  0.00923458  0.10230423  0.32266858  1
  H  H19  1  0.10099325  0.04460367  0.60397389  1
  H  H20  1  0.99076542  0.89763009  0.67746277  1
  H  H21  1  0.89900675  0.95533065  0.39615746  1
  H  H22  1  0.00777564  0.57406841  0.10332261  1
  H  H23  1  0.10245179  0.35238056  0.04378069  1
  H  H24  1  0.99222436  0.42586591  0.89680874  1
  H  H25  1  0.89754821  0.64755376  0.95635067  1
  H  H26  1  0.55752715  0.50616045  0.14438770  1
  H  H27  1  0.33224662  0.42028730  0.00271631  1
  H  H28  1  0.44247285  0.49377387  0.85574365  1
  H  H29  1  0.66775338  0.57964702  0.99741504  1
  C  C30  1  0.12668393  0.41551012  0.41561293  1
  C  C31  1  0.12668393  0.16888080  0.41560909  1
  C  C32  1  0.12668391  0.41550910  0.16897796  1
  C  C33  1  0.37331608  0.41551011  0.41561295  1
  C  C34  1  0.37331608  0.16888079  0.41560911  1
  C  C35  1  0.37331606  0.41550909  0.16897798  1
  C  C36  1  0.62668392  0.58442422  0.58451841  1
  C  C37  1  0.62668392  0.83105354  0.58452225  1
  C  C38  1  0.62668394  0.58442523  0.83115338  1
  C  C39  1  0.87331607  0.58442421  0.58451843  1
  C  C40  1  0.87331607  0.83105353  0.58452227  1
  C  C41  1  0.87331609  0.58442522  0.83115340  1
  C  C42  1  0.11143678  0.49992595  0.50804278  1
  C  C43  1  0.06334306  0.45773791  0.45783857  1
  C  C44  1  0.95190628  0.45777912  0.44986147  1
  C  C45  1  0.88856322  0.50000837  0.49208857  1
  C  C46  1  0.93665694  0.54219641  0.54229278  1
  C  C47  1  0.04809372  0.54215520  0.55026989  1
  C  C48  1  0.44200168  0.55967819  0.41468427  1
  C  C49  1  0.43665694  0.45773790  0.45783858  1
  C  C50  1  0.49465526  0.39802686  0.54321998  1
  C  C51  1  0.55799832  0.44025613  0.58544708  1
  C  C52  1  0.56334306  0.54219642  0.54229278  1
  C  C53  1  0.50534474  0.60190746  0.45691137  1
  C  C54  1  0.38921472  0.99244196  0.49325079  1
  C  C55  1  0.43665792  0.08442414  0.45783731  1
  C  C56  1  0.54744320  0.09194934  0.46465219  1
  C  C57  1  0.61078528  0.00749236  0.50688056  1
  C  C58  1  0.56334208  0.91551018  0.54229404  1
  C  C59  1  0.45255680  0.90798498  0.53547916  1
  C  C60  1  0.00530644  0.05877279  0.39812854  1
  C  C61  1  0.06334208  0.08442413  0.45783731  1
  C  C62  1  0.05803564  0.02561850  0.55977444  1
  C  C63  1  0.99469356  0.94116153  0.60200282  1
  C  C64  1  0.93665792  0.91551019  0.54229405  1
  C  C65  1  0.94196436  0.97431582  0.44035691  1
  C  C66  1  0.00446809  0.54254773  0.05939988  1
  C  C67  1  0.06334187  0.45773819  0.08452170  1
  C  C68  1  0.05887377  0.41515763  0.02518749  1
  C  C69  1  0.99553191  0.45738659  0.94073147  1
  C  C70  1  0.93665813  0.54219613  0.91560966  1
  C  C71  1  0.94112623  0.58477670  0.97494386  1
  C  C72  1  0.53305664  0.50352599  0.08299699  1
  C  C73  1  0.43665814  0.45773820  0.08452168  1
  C  C74  1  0.40360149  0.45417937  0.00159037  1
  C  C75  1  0.46694336  0.49640833  0.91713436  1
  C  C76  1  0.56334186  0.54219612  0.91560967  1
  C  C77  1  0.59639850  0.54575495  0.99854099  1
  O  O78  1  0.15891337  0.33715231  0.46541505  1
  O  O79  1  0.15891336  0.19743581  0.33725210  1
  O  O80  1  0.15891334  0.46530525  0.19754613  1
  O  O81  1  0.15891336  0.46531376  0.33725627  1
  O  O82  1  0.15891334  0.33714512  0.19754414  1
  O  O83  1  0.15891337  0.19743449  0.46541287  1
  O  O84  1  0.34108666  0.33715230  0.46541506  1
  O  O85  1  0.34108665  0.19743580  0.33725212  1
  O  O86  1  0.34108663  0.46530524  0.19754615  1
  O  O87  1  0.34108664  0.46531375  0.33725629  1
  O  O88  1  0.34108663  0.33714511  0.19754415  1
  O  O89  1  0.34108666  0.19743448  0.46541289  1
  O  O90  1  0.24999273  0.33333333  0.33333333  1
  O  O91  1  0.65891334  0.66278202  0.53471629  1
  O  O92  1  0.65891335  0.80249852  0.66287923  1
  O  O93  1  0.65891337  0.53462908  0.80258521  1
  O  O94  1  0.65891335  0.53462057  0.66287507  1
  O  O95  1  0.65891337  0.66278921  0.80258720  1
  O  O96  1  0.65891334  0.80249984  0.53471846  1
  O  O97  1  0.84108663  0.66278202  0.53471631  1
  O  O98  1  0.84108664  0.80249852  0.66287925  1
  O  O99  1  0.84108666  0.53462907  0.80258522  1
  O  O100  1  0.84108664  0.53462056  0.66287508  1
  O  O101  1  0.84108666  0.66278921  0.80258722  1
  O  O102  1  0.84108663  0.80249984  0.53471848  1
  O  O103  1  0.74999273  0.66666667  0.66666667  1
