# generated using pymatgen
data_Al3H36C60O13
_symmetry_space_group_name_H-M   'P 1'
_cell_length_a   24.20642027
_cell_length_b   30.52452370
_cell_length_c   30.52485043
_cell_angle_alpha   60.00035407
_cell_angle_beta   89.99999721
_cell_angle_gamma   89.99999763
_symmetry_Int_Tables_number   1
_chemical_formula_structural   Al3H36C60O13
_chemical_formula_sum   'Al6 H72 C120 O26'
_cell_volume   19532.83092948
_cell_formula_units_Z   2
loop_
 _symmetry_equiv_pos_site_id
 _symmetry_equiv_pos_as_xyz
  1  'x, y, z'
loop_
 _atom_site_type_symbol
 _atom_site_label
 _atom_site_symmetry_multiplicity
 _atom_site_fract_x
 _atom_site_fract_y
 _atom_site_fract_z
 _atom_site_occupancy
  Al  Al0  1  0.24999587  0.30049002  0.39901406  1
  Al  Al1  1  0.24999587  0.30048921  0.30059220  1
  Al  Al2  1  0.24999587  0.39891422  0.30059374  1
  Al  Al3  1  0.74999587  0.69944374  0.60111842  1
  Al  Al4  1  0.74999587  0.69944455  0.69954028  1
  Al  Al5  1  0.74999587  0.60101954  0.69953875  1
  H  H6  1  0.82716464  0.65066622  0.51343241  1
  H  H7  1  0.89430324  0.61202938  0.47142087  1
  H  H8  1  0.96339568  0.49760844  0.63017430  1
  H  H9  1  0.89585911  0.53596523  0.67223471  1
  H  H10  1  0.93998509  0.58235885  0.44143095  1
  H  H11  1  0.00260240  0.54051011  0.39959638  1
  H  H12  1  0.07416192  0.42740994  0.55769660  1
  H  H13  1  0.01154565  0.46930390  0.59950515  1
  H  H14  1  0.04740511  0.51038874  0.36956213  1
  H  H15  1  0.10556356  0.46565904  0.32807095  1
  H  H16  1  0.17437830  0.34975269  0.48633845  1
  H  H17  1  0.11665554  0.39488331  0.52772072  1
  H  H18  1  0.28436380  0.44981889  0.41306562  1
  H  H19  1  0.34614968  0.48723144  0.45966761  1
  H  H20  1  0.49857246  0.40008597  0.45007517  1
  H  H21  1  0.43686825  0.36303673  0.40303944  1
  H  H22  1  0.39115715  0.51664245  0.49034114  1
  H  H23  1  0.45386066  0.55855196  0.53206072  1
  H  H24  1  0.60612395  0.46980257  0.52505642  1
  H  H25  1  0.54337674  0.42788064  0.48335819  1
  H  H26  1  0.49887903  0.58877215  0.56186052  1
  H  H27  1  0.56224101  0.63473582  0.59884541  1
  H  H28  1  0.71585445  0.54933813  0.58855312  1
  H  H29  1  0.65231085  0.50295288  0.55208604  1
  H  H30  1  0.67686128  0.83843435  0.64752455  1
  H  H31  1  0.61831953  0.92448901  0.60197162  1
  H  H32  1  0.54478856  0.87736283  0.49112264  1
  H  H33  1  0.60297350  0.79106472  0.53700278  1
  H  H34  1  0.57378274  0.98486955  0.57138029  1
  H  H35  1  0.51100329  0.06845090  0.52966267  1
  H  H36  1  0.43903726  0.02319277  0.41689043  1
  H  H37  1  0.50186227  0.93962153  0.45861577  1
  H  H38  1  0.46582549  0.12837062  0.49984358  1
  H  H39  1  0.39928489  0.20932026  0.46185854  1
  H  H40  1  0.32371653  0.16270954  0.35138681  1
  H  H41  1  0.39074217  0.08204693  0.38903196  1
  H  H42  1  0.12427175  0.19457308  0.47741761  1
  H  H43  1  0.05696793  0.11402855  0.51649079  1
  H  H44  1  0.08490681  0.09733993  0.37506018  1
  H  H45  1  0.15263477  0.17763682  0.33619808  1
  H  H46  1  0.01131055  0.05435270  0.54609725  1
  H  H47  1  0.94867873  0.97067852  0.58798494  1
  H  H48  1  0.97393330  0.95479405  0.44580638  1
  H  H49  1  0.03654429  0.03849988  0.40392569  1
  H  H50  1  0.90386178  0.91053187  0.61814433  1
  H  H51  1  0.84584596  0.82422134  0.66249860  1
  H  H52  1  0.87413945  0.80551304  0.52235066  1
  H  H53  1  0.93164887  0.89216002  0.47778190  1
  H  H54  1  0.11527266  0.32735705  0.20032800  1
  H  H55  1  0.04814757  0.36940484  0.11967194  1
  H  H56  1  0.09415400  0.52907069  0.09162462  1
  H  H57  1  0.16168973  0.48700909  0.17204151  1
  H  H58  1  0.00252280  0.39955185  0.05997623  1
  H  H59  1  0.93988446  0.44132705  0.97630704  1
  H  H60  1  0.98326416  0.60120444  0.94902764  1
  H  H61  1  0.04587908  0.55939335  0.03273010  1
  H  H62  1  0.89505583  0.47128870  0.91616838  1
  H  H63  1  0.83686261  0.51268244  0.82997032  1
  H  H64  1  0.88318163  0.67293067  0.79992976  1
  H  H65  1  0.94087765  0.63147571  0.88645847  1
  H  H66  1  0.64033405  0.51624119  0.81556358  1
  H  H67  1  0.58254556  0.47339260  0.90209103  1
  H  H68  1  0.58236598  0.62598215  0.90109582  1
  H  H69  1  0.63974038  0.66895225  0.81428890  1
  H  H70  1  0.53814441  0.44328773  0.96255623  1
  H  H71  1  0.47533725  0.40146965  0.04611925  1
  H  H72  1  0.47696964  0.55302313  0.04714743  1
  H  H73  1  0.53981207  0.59481195  0.96358804  1
  H  H74  1  0.43011019  0.37147300  0.10600736  1
  H  H75  1  0.36282092  0.33079824  0.18648531  1
  H  H76  1  0.36042573  0.48312492  0.18589346  1
  H  H77  1  0.42824041  0.52360478  0.10572793  1
  C  C78  1  0.17988224  0.38004468  0.38014651  1
  C  C79  1  0.17988224  0.23981099  0.38014433  1
  C  C80  1  0.17988224  0.38004433  0.23990917  1
  C  C81  1  0.32011776  0.38004468  0.38014651  1
  C  C82  1  0.32011776  0.23981099  0.38014432  1
  C  C83  1  0.32011776  0.38004432  0.23990917  1
  C  C84  1  0.67988224  0.61988908  0.61998598  1
  C  C85  1  0.67988224  0.76012277  0.61998816  1
  C  C86  1  0.67988224  0.61988943  0.76022332  1
  C  C87  1  0.82011776  0.61988907  0.61998598  1
  C  C88  1  0.82011776  0.76012277  0.61998816  1
  C  C89  1  0.82011776  0.61988943  0.76022332  1
  C  C90  1  0.85613313  0.59587869  0.59597608  1
  C  C91  1  0.85604548  0.61803909  0.53827007  1
  C  C92  1  0.89463588  0.59588526  0.51412428  1
  C  C93  1  0.93339868  0.55162626  0.54771886  1
  C  C94  1  0.93431121  0.53009207  0.60535252  1
  C  C95  1  0.89551975  0.55211872  0.62951781  1
  C  C96  1  0.97070888  0.52857960  0.52360877  1
  C  C97  1  0.96848663  0.54934728  0.46614075  1
  C  C98  1  0.00448767  0.52538113  0.44211131  1
  C  C99  1  0.04264375  0.48058705  0.47562270  1
  C  C100  1  0.04559165  0.46036386  0.53298306  1
  C  C101  1  0.00961283  0.48439232  0.55700093  1
  C  C102  1  0.07728444  0.45563874  0.45177734  1
  C  C103  1  0.07439438  0.47621379  0.39437724  1
  C  C104  1  0.10779259  0.45050665  0.37053095  1
  C  C105  1  0.14386687  0.40405507  0.40415640  1
  C  C106  1  0.14735337  0.38388408  0.46150794  1
  C  C107  1  0.11418361  0.40980022  0.48530699  1
  C  C108  1  0.35613313  0.40405507  0.40415641  1
  C  C109  1  0.32994924  0.43933611  0.42083255  1
  C  C110  1  0.36541341  0.46079586  0.44763840  1
  C  C111  1  0.42705259  0.44685978  0.45785220  1
  C  C112  1  0.45302809  0.41076317  0.44208758  1
  C  C113  1  0.41759151  0.38948039  0.41506864  1
  C  C114  1  0.46275987  0.46959290  0.48328386  1
  C  C115  1  0.43691099  0.50675819  0.49767742  1
  C  C116  1  0.47287723  0.53075821  0.52169485  1
  C  C117  1  0.53472452  0.51760554  0.53123110  1
  C  C118  1  0.56039154  0.47976805  0.51764362  1
  C  C119  1  0.52437695  0.45571896  0.49366890  1
  C  C120  1  0.57099445  0.54285148  0.55375425  1
  C  C121  1  0.54502629  0.58042022  0.56752411  1
  C  C122  1  0.58142963  0.60684945  0.58875847  1
  C  C123  1  0.64386686  0.59587868  0.59597608  1
  C  C124  1  0.66972951  0.55775529  0.58284682  1
  C  C125  1  0.63323303  0.53109694  0.56188204  1
  C  C126  1  0.64386598  0.80814467  0.59597724  1
  C  C127  1  0.64867624  0.84666088  0.61433793  1
  C  C128  1  0.61509449  0.89611027  0.58815467  1
  C  C129  1  0.57679046  0.90706249  0.54352700  1
  C  C130  1  0.57278722  0.86901868  0.52447955  1
  C  C131  1  0.60620429  0.81944696  0.55082988  1
  C  C132  1  0.54202365  0.95581869  0.51843440  1
  C  C133  1  0.54504532  0.99302247  0.53855883  1
  C  C134  1  0.50907584  0.04103790  0.51456767  1
  C  C135  1  0.47003360  0.05176261  0.47048700  1
  C  C136  1  0.46769690  0.01500911  0.44977212  1
  C  C137  1  0.50374025  0.96700337  0.47374827  1
  C  C138  1  0.43282056  0.09893862  0.44760871  1
  C  C139  1  0.43557905  0.13568163  0.46828956  1
  C  C140  1  0.39733445  0.18218732  0.44648206  1
  C  C141  1  0.35613402  0.19178909  0.40415525  1
  C  C142  1  0.35390060  0.15539586  0.38297613  1
  C  C143  1  0.39240187  0.10903348  0.40460232  1
  C  C144  1  0.14386598  0.19178908  0.40415525  1
  C  C145  1  0.11599950  0.17382325  0.45570429  1
  C  C146  1  0.07730363  0.12758993  0.47813663  1
  C  C147  1  0.06640290  0.09940359  0.44892927  1
  C  C148  1  0.09339243  0.11795600  0.39689134  1
  C  C149  1  0.13229751  0.16407653  0.37456470  1
  C  C150  1  0.02902061  0.05229216  0.47216642  1
  C  C151  1  0.00339654  0.03310382  0.52482393  1
  C  C152  1  0.96737674  0.98512005  0.54883994  1
  C  C153  1  0.95708143  0.95631626  0.52017113  1
  C  C154  1  0.98191758  0.97598056  0.46713331  1
  C  C155  1  0.01790040  0.02402437  0.44309391  1
  C  C156  1  0.92252348  0.90747057  0.54490163  1
  C  C157  1  0.89754764  0.88816985  0.59780338  1
  C  C158  1  0.86422776  0.83856720  0.62330438  1
  C  C159  1  0.85613402  0.80814468  0.59597723  1
  C  C160  1  0.88048744  0.82781722  0.54273993  1
  C  C161  1  0.91354605  0.87760228  0.51711649  1
  C  C162  1  0.14386541  0.40405575  0.19188675  1
  C  C163  1  0.11087777  0.37025916  0.17714073  1
  C  C164  1  0.07228429  0.39439580  0.13084351  1
  C  C165  1  0.06661387  0.45235045  0.09936923  1
  C  C166  1  0.09875458  0.48615840  0.11468295  1
  C  C167  1  0.13754987  0.46200435  0.16087202  1
  C  C168  1  0.02928015  0.47639481  0.05222776  1
  C  C169  1  0.99845948  0.44244977  0.03630668  1
  C  C170  1  0.96243703  0.46641927  0.98832509  1
  C  C171  1  0.95733900  0.52436212  0.95625413  1
  C  C172  1  0.98739446  0.55830541  0.97263689  1
  C  C173  1  0.02337951  0.53430548  0.02067878  1
  C  C174  1  0.92273395  0.54830539  0.90743858  1
  C  C175  1  0.89253517  0.51416535  0.89142169  1
  C  C176  1  0.85911194  0.53794169  0.84188455  1
  C  C177  1  0.85613458  0.59587800  0.80824574  1
  C  C178  1  0.88573342  0.63005690  0.82462033  1
  C  C179  1  0.91890104  0.60625267  0.87433630  1
  C  C180  1  0.64386542  0.59587801  0.80824573  1
  C  C181  1  0.62789571  0.53960800  0.83369306  1
  C  C182  1  0.59474582  0.51497517  0.88341352  1
  C  C183  1  0.57768149  0.54662875  0.90772320  1
  C  C184  1  0.59458547  0.60266901  0.88282829  1
  C  C185  1  0.62753948  0.62735686  0.83296589  1
  C  C186  1  0.54311984  0.52227246  0.95660791  1
  C  C187  1  0.52504240  0.46662000  0.98054212  1
  C  C188  1  0.48906183  0.44258845  0.02855006  1
  C  C189  1  0.47112076  0.47429156  0.05254512  1
  C  C190  1  0.48998006  0.52970147  0.02912211  1
  C  C191  1  0.52603311  0.55371298  0.98112298  1
  C  C192  1  0.43370759  0.45069395  0.09959476  1
  C  C193  1  0.41525688  0.39520256  0.12299898  1
  C  C194  1  0.37657626  0.37182860  0.16922997  1
  C  C195  1  0.35613458  0.40405575  0.19188675  1
  C  C196  1  0.37520527  0.45938974  0.16889201  1
  C  C197  1  0.41416720  0.48267086  0.12281982  1
  O  O198  1  0.19820795  0.33549031  0.40846414  1
  O  O199  1  0.19820796  0.25604747  0.33559032  1
  O  O200  1  0.19820796  0.40835844  0.25615311  1
  O  O201  1  0.19820795  0.40836316  0.33559269  1
  O  O202  1  0.19820796  0.33548645  0.25615198  1
  O  O203  1  0.19820795  0.25604661  0.40846290  1
  O  O204  1  0.30179204  0.33549031  0.40846413  1
  O  O205  1  0.30179205  0.25604747  0.33559032  1
  O  O206  1  0.30179205  0.40835844  0.25615311  1
  O  O207  1  0.30179204  0.40836316  0.33559269  1
  O  O208  1  0.30179205  0.33548645  0.25615197  1
  O  O209  1  0.30179204  0.25604661  0.40846290  1
  O  O210  1  0.24999587  0.33333333  0.33333333  1
  O  O211  1  0.69820796  0.66444345  0.59166835  1
  O  O212  1  0.69820795  0.74388629  0.66454217  1
  O  O213  1  0.69820795  0.59157532  0.74397938  1
  O  O214  1  0.69820796  0.59157060  0.66453979  1
  O  O215  1  0.69820795  0.66444731  0.74398051  1
  O  O216  1  0.69820795  0.74388715  0.59166959  1
  O  O217  1  0.80179205  0.66444345  0.59166835  1
  O  O218  1  0.80179204  0.74388629  0.66454216  1
  O  O219  1  0.80179204  0.59157532  0.74397937  1
  O  O220  1  0.80179205  0.59157060  0.66453979  1
  O  O221  1  0.80179204  0.66444731  0.74398051  1
  O  O222  1  0.80179204  0.74388715  0.59166959  1
  O  O223  1  0.74999587  0.66666667  0.66666667  1
