# generated using pymatgen
data_Zn4H36C60O13
_symmetry_space_group_name_H-M   'P 1'
_cell_length_a   26.75032528
_cell_length_b   28.62076560
_cell_length_c   28.62053769
_cell_angle_alpha   119.99850159
_cell_angle_beta   89.99971362
_cell_angle_gamma   89.99997779
_symmetry_Int_Tables_number   1
_chemical_formula_structural   Zn4H36C60O13
_chemical_formula_sum   'Zn8 H72 C120 O26'
_cell_volume   18976.90099004
_cell_formula_units_Z   2
loop_
 _symmetry_equiv_pos_site_id
 _symmetry_equiv_pos_as_xyz
  1  'x, y, z'
loop_
 _atom_site_type_symbol
 _atom_site_label
 _atom_site_symmetry_multiplicity
 _atom_site_fract_x
 _atom_site_fract_y
 _atom_site_fract_z
 _atom_site_occupancy
  Zn  Zn0  1  0.27419879  0.60272908  0.33340107  1
  Zn  Zn1  1  0.27419897  0.66670076  0.26942837  1
  Zn  Zn2  1  0.17740367  0.66670011  0.33336678  1
  Zn  Zn3  1  0.27419857  0.73067005  0.39733672  1
  Zn  Zn4  1  0.72579846  0.26939091  0.66673516  1
  Zn  Zn5  1  0.72579824  0.39733189  0.73070445  1
  Zn  Zn6  1  0.82259355  0.33333333  0.66670544  1
  Zn  Zn7  1  0.72579864  0.33333333  0.60273320  1
  H  H8  1  0.80669752  0.13985255  0.66997339  1
  H  H9  1  0.86726876  0.05380055  0.62277221  1
  H  H10  1  0.97351577  0.14725482  0.56999365  1
  H  H11  1  0.91314534  0.23350309  0.61764727  1
  H  H12  1  0.91221329  0.99309115  0.59181250  1
  H  H13  1  0.97515947  0.90888925  0.54980854  1
  H  H14  1  0.08064933  0.00068648  0.49438991  1
  H  H15  1  0.01766087  0.08487254  0.53638315  1
  H  H16  1  0.02039906  0.84850174  0.51981926  1
  H  H17  1  0.08536297  0.76635643  0.48283637  1
  H  H18  1  0.19317084  0.85913983  0.43081268  1
  H  H19  1  0.12789865  0.94103723  0.46728005  1
  H  H20  1  0.35425874  0.81882581  0.27766415  1
  H  H21  1  0.41299630  0.90647304  0.32230835  1
  H  H22  1  0.42337865  0.89643401  0.47897744  1
  H  H23  1  0.36499122  0.80846057  0.43411761  1
  H  H24  1  0.45764999  0.96743520  0.35297662  1
  H  H25  1  0.52064807  0.05159149  0.39501007  1
  H  H26  1  0.52955294  0.04383634  0.55297216  1
  H  H27  1  0.46652152  0.95968812  0.51091557  1
  H  H28  1  0.56598885  0.11189061  0.42508817  1
  H  H29  1  0.63275850  0.19246412  0.46454448  1
  H  H30  1  0.64516306  0.18269447  0.62118154  1
  H  H31  1  0.57794171  0.10249370  0.58191081  1
  H  H32  1  0.34475981  0.71640748  0.54349642  1
  H  H33  1  0.40363668  0.67113358  0.58575097  1
  H  H34  1  0.43306700  0.52624875  0.41425631  1
  H  H35  1  0.37453037  0.57179492  0.37195641  1
  H  H36  1  0.44831841  0.64038669  0.61594351  1
  H  H37  1  0.51131093  0.59836262  0.65808286  1
  H  H38  1  0.53930130  0.45187312  0.48723483  1
  H  H39  1  0.47627246  0.49391468  0.44512363  1
  H  H40  1  0.55664181  0.56830916  0.68833876  1
  H  H41  1  0.62327303  0.52946384  0.73018953  1
  H  H42  1  0.65469459  0.38478434  0.55919652  1
  H  H43  1  0.58761607  0.42337040  0.51745541  1
  H  H44  1  0.90253611  0.40075095  0.62401481  1
  H  H45  1  0.96841058  0.43810231  0.57992660  1
  H  H46  1  0.88525558  0.34552334  0.41597939  1
  H  H47  1  0.81909395  0.30856638  0.46023366  1
  H  H48  1  0.01397263  0.46767888  0.54932952  1
  H  H49  1  0.07685388  0.50989767  0.50728771  1
  H  H50  1  0.99569754  0.41555519  0.34231796  1
  H  H51  1  0.93283916  0.37332307  0.38438727  1
  H  H52  1  0.12190421  0.54035125  0.47718754  1
  H  H53  1  0.18173508  0.58696987  0.43719211  1
  H  H54  1  0.09865071  0.49623874  0.27312511  1
  H  H55  1  0.03918150  0.44916278  0.31299823  1
  H  H56  1  0.83207390  0.54366529  0.83815634  1
  H  H57  1  0.89127796  0.58486965  0.92539840  1
  H  H58  1  0.94621144  0.41251955  0.87660718  1
  H  H59  1  0.88732197  0.37136196  0.78906981  1
  H  H60  1  0.93601551  0.61492227  0.98628798  1
  H  H61  1  0.99899708  0.65708277  0.07045912  1
  H  H62  1  0.05260711  0.48488828  0.02381785  1
  H  H63  1  0.98958599  0.44275049  0.93966018  1
  H  H64  1  0.04430792  0.68738563  0.13078462  1
  H  H65  1  0.11061503  0.73026274  0.21176084  1
  H  H66  1  0.16746019  0.55869694  0.16333512  1
  H  H67  1  0.10072681  0.51581766  0.08270954  1
  H  H68  1  0.57315837  0.31153834  0.75569952  1
  H  H69  1  0.51140291  0.34924495  0.84072231  1
  H  H70  1  0.64487756  0.43519109  0.95586863  1
  H  H71  1  0.70656489  0.39786916  0.87076499  1
  H  H72  1  0.46641504  0.37895447  0.90139466  1
  H  H73  1  0.40344722  0.42113392  0.98557858  1
  H  H74  1  0.53677915  0.50522563  0.10159909  1
  H  H75  1  0.59973621  0.46299992  0.01738486  1
  H  H76  1  0.35820605  0.45153238  0.04596530  1
  H  H77  1  0.29435033  0.49777034  0.12907539  1
  H  H78  1  0.42666281  0.58552834  0.24523940  1
  H  H79  1  0.49056929  0.53877339  0.16215320  1
  C  C80  1  0.32732764  0.56449152  0.23115818  1
  C  C81  1  0.17267301  0.66670139  0.23118950  1
  C  C82  1  0.17267272  0.56449049  0.33340203  1
  C  C83  1  0.17267236  0.76890848  0.43557515  1
  C  C84  1  0.32732728  0.76890951  0.33339797  1
  C  C85  1  0.32732699  0.66666667  0.43557856  1
  C  C86  1  0.67266961  0.33333333  0.76891762  1
  C  C87  1  0.82732419  0.43557000  0.76894265  1
  C  C88  1  0.82732455  0.23115201  0.66673556  1
  C  C89  1  0.82732484  0.33333333  0.56449344  1
  C  C90  1  0.67266989  0.43557152  0.66673236  1
  C  C91  1  0.67267025  0.23115352  0.56452527  1
  C  C92  1  0.85565659  0.19322995  0.64777414  1
  C  C93  1  0.84223348  0.14146807  0.64881823  1
  C  C94  1  0.87699272  0.09202076  0.62167172  1
  C  C95  1  0.92512947  0.09433663  0.59338033  1
  C  C96  1  0.93808428  0.14573067  0.59138154  1
  C  C97  1  0.90341254  0.19527531  0.61875316  1
  C  C98  1  0.96054636  0.04540277  0.56770245  1
  C  C99  1  0.94809104  0.99469490  0.57114480  1
  C  C100  1  0.98417985  0.94632815  0.54696499  1
  C  C101  1  0.03276065  0.94876306  0.51941475  1
  C  C102  1  0.04481789  0.99910250  0.51514000  1
  C  C103  1  0.00867103  0.04746026  0.53928219  1
  C  C104  1  0.06955876  0.90107830  0.49678652  1
  C  C105  1  0.05715573  0.85074938  0.50090975  1
  C  C106  1  0.09448655  0.80355254  0.47968030  1
  C  C107  1  0.14434032  0.80683054  0.45457053  1
  C  C108  1  0.15645454  0.85688604  0.44977059  1
  C  C109  1  0.11896171  0.90396236  0.47072883  1
  C  C110  1  0.35565868  0.80683130  0.35235930  1
  C  C111  1  0.36905296  0.83525834  0.32043071  1
  C  C112  1  0.40275308  0.88562706  0.34607773  1
  C  C113  1  0.42295975  0.90761403  0.40372050  1
  C  C114  1  0.40876984  0.87983967  0.43609652  1
  C  C115  1  0.37523411  0.82930673  0.41033434  1
  C  C116  1  0.45785725  0.95699962  0.42861732  1
  C  C117  1  0.47302362  0.98367273  0.39549159  1
  C  C118  1  0.50912366  0.03202945  0.41964275  1
  C  C119  1  0.53008833  0.05362419  0.47691565  1
  C  C120  1  0.51425815  0.02755074  0.51041703  1
  C  C121  1  0.47809246  0.97920962  0.48626124  1
  C  C122  1  0.56740159  0.10086040  0.50034415  1
  C  C123  1  0.58285622  0.12694923  0.46677479  1
  C  C124  1  0.62123521  0.17323369  0.48942995  1
  C  C125  1  0.64433885  0.19323173  0.54556394  1
  C  C126  1  0.62836065  0.16762060  0.57947177  1
  C  C127  1  0.58973966  0.12152628  0.55691866  1
  C  C128  1  0.35565694  0.64773827  0.45457041  1
  C  C129  1  0.36363242  0.67602750  0.51600148  1
  C  C130  1  0.39741188  0.65001251  0.54028756  1
  C  C131  1  0.42312279  0.59563048  0.50310477  1
  C  C132  1  0.41437394  0.56677192  0.44173772  1
  C  C133  1  0.38075317  0.59292896  0.41743440  1
  C  C134  1  0.45805708  0.57054450  0.52737373  1
  C  C135  1  0.46774770  0.60032188  0.58858850  1
  C  C136  1  0.50384498  0.57616603  0.61279309  1
  C  C137  1  0.53028682  0.52224911  0.57570670  1
  C  C138  1  0.51994822  0.49198867  0.51459478  1
  C  C139  1  0.48378430  0.51614058  0.49040272  1
  C  C140  1  0.56756543  0.49901262  0.59973784  1
  C  C141  1  0.57752190  0.52929735  0.66089516  1
  C  C142  1  0.61582004  0.50699497  0.68494882  1
  C  C143  1  0.64433995  0.45453185  0.64777245  1
  C  C144  1  0.63387715  0.42382604  0.58665677  1
  C  C145  1  0.59534020  0.44598807  0.56265014  1
  C  C146  1  0.85565556  0.35232354  0.54556294  1
  C  C147  1  0.89879491  0.38910732  0.57980617  1
  C  C148  1  0.93666164  0.41052946  0.55448372  1
  C  C149  1  0.93141768  0.39504468  0.49486084  1
  C  C150  1  0.88885638  0.35737769  0.46027706  1
  C  C151  1  0.85084944  0.33614782  0.48569096  1
  C  C152  1  0.96844854  0.41784497  0.47013042  1
  C  C153  1  0.01007365  0.45667594  0.50531510  1
  C  C154  1  0.04621753  0.48084870  0.48116777  1
  C  C155  1  0.04064043  0.46620615  0.42182987  1
  C  C156  1  0.99955493  0.42664564  0.38636316  1
  C  C157  1  0.96343713  0.40242042  0.41052226  1
  C  C158  1  0.07578854  0.49173139  0.39823334  1
  C  C159  1  0.11696390  0.53100647  0.43380424  1
  C  C160  1  0.15133486  0.55781355  0.41083767  1
  C  C161  1  0.14434199  0.54552986  0.35236212  1
  C  C162  1  0.10357804  0.50565317  0.31652549  1
  C  C163  1  0.06938952  0.47859787  0.33942303  1
  C  C164  1  0.85565707  0.45453233  0.80686599  1
  C  C165  1  0.85643385  0.51578807  0.84626838  1
  C  C166  1  0.89040149  0.53946242  0.89640473  1
  C  C167  1  0.92351030  0.50182187  0.90716913  1
  C  C168  1  0.92201678  0.44043089  0.86835082  1
  C  C169  1  0.88819420  0.41678401  0.81806703  1
  C  C170  1  0.95853520  0.52578077  0.95644421  1
  C  C171  1  0.96088635  0.58729948  0.99426459  1
  C  C172  1  0.99697996  0.61150108  0.04262719  1
  C  C173  1  0.03076130  0.57412180  0.05307367  1
  C  C174  1  0.02780656  0.51253395  0.01580058  1
  C  C175  1  0.99164655  0.48833330  0.96745424  1
  C  C176  1  0.06795073  0.59846763  0.10041784  1
  C  C177  1  0.07052236  0.66004327  0.13771289  1
  C  C178  1  0.10863201  0.68469040  0.18423186  1
  C  C179  1  0.14434013  0.64773907  0.19326615  1
  C  C180  1  0.14130370  0.58606798  0.15639770  1
  C  C181  1  0.10296749  0.56140889  0.11005546  1
  C  C182  1  0.64433943  0.35232147  0.80686531  1
  C  C183  1  0.58838911  0.33793761  0.79826035  1
  C  C184  1  0.55291720  0.35954974  0.84708824  1
  C  C185  1  0.57345875  0.39546062  0.90453506  1
  C  C186  1  0.62960157  0.40899055  0.91326795  1
  C  C187  1  0.66503910  0.38755762  0.86438893  1
  C  C188  1  0.53763412  0.41832319  0.95311473  1
  C  C189  1  0.48133615  0.40588407  0.94399519  1
  C  C190  1  0.44519794  0.43002459  0.99231944  1
  C  C191  1  0.46541363  0.46667203  0.04975002  1
  C  C192  1  0.52182875  0.47837512  0.05899359  1
  C  C193  1  0.55797992  0.45416230  0.01063909  1
  C  C194  1  0.42905162  0.49215226  0.09781462  1
  C  C195  1  0.37273712  0.48004971  0.08834721  1
  C  C196  1  0.33603683  0.50662905  0.13609298  1
  C  C197  1  0.35565782  0.54553066  0.19327047  1
  C  C198  1  0.41209577  0.55706982  0.20286746  1
  C  C199  1  0.44883331  0.53021897  0.15513368  1
  O  O200  1  0.25000000  0.66666667  0.33333333  1
  O  O201  1  0.31467561  0.55770711  0.27142146  1
  O  O202  1  0.22089360  0.66670140  0.22440536  1
  O  O203  1  0.14975596  0.60472052  0.33340138  1
  O  O204  1  0.31467574  0.60472162  0.22440620  1
  O  O205  1  0.22089329  0.55770648  0.33340202  1
  O  O206  1  0.14975613  0.66670093  0.27141998  1
  O  O207  1  0.22089291  0.77569225  0.44235892  1
  O  O208  1  0.31467552  0.72868012  0.28638430  1
  O  O209  1  0.14975574  0.72867902  0.39534569  1
  O  O210  1  0.31467522  0.77569288  0.38041231  1
  O  O211  1  0.31467505  0.71371246  0.44239370  1
  O  O212  1  0.31467522  0.61968521  0.39538095  1
  O  O213  1  0.74999722  0.33333333  0.66670553  1
  O  O214  1  0.68532165  0.28634717  0.72871527  1
  O  O215  1  0.77910360  0.44235392  0.77572666  1
  O  O216  1  0.85024129  0.27138197  0.66673478  1
  O  O217  1  0.68532149  0.38037443  0.77572802  1
  O  O218  1  0.77910398  0.22436816  0.66673581  1
  O  O219  1  0.85024107  0.39534047  0.72871288  1
  O  O220  1  0.77910429  0.33333333  0.55770942  1
  O  O221  1  0.68532166  0.44235484  0.71374663  1
  O  O222  1  0.85024147  0.33333333  0.60472434  1
  O  O223  1  0.68532196  0.39534209  0.61971862  1
  O  O224  1  0.68532217  0.27138358  0.55774052  1
  O  O225  1  0.68532204  0.22436907  0.60475578  1
