# generated using pymatgen
data_Al3H36C60O13
_symmetry_space_group_name_H-M   'P 1'
_cell_length_a   24.20642167
_cell_length_b   30.52452392
_cell_length_c   30.52485052
_cell_angle_alpha   60.00035293
_cell_angle_beta   90.00000035
_cell_angle_gamma   90.00000100
_symmetry_Int_Tables_number   1
_chemical_formula_structural   Al3H36C60O13
_chemical_formula_sum   'Al6 H72 C120 O26'
_cell_volume   19532.83202635
_cell_formula_units_Z   2
loop_
 _symmetry_equiv_pos_site_id
 _symmetry_equiv_pos_as_xyz
  1  'x, y, z'
loop_
 _atom_site_type_symbol
 _atom_site_label
 _atom_site_symmetry_multiplicity
 _atom_site_fract_x
 _atom_site_fract_y
 _atom_site_fract_z
 _atom_site_occupancy
  Al  Al0  1  0.24999587  0.30049002  0.39901406  1
  Al  Al1  1  0.24999587  0.30048921  0.30059220  1
  Al  Al2  1  0.24999587  0.39891422  0.30059373  1
  Al  Al3  1  0.74999587  0.69944374  0.60111842  1
  Al  Al4  1  0.74999587  0.69944455  0.69954028  1
  Al  Al5  1  0.74999587  0.60101954  0.69953875  1
  H  H6  1  0.86109314  0.66865671  0.51677864  1
  H  H7  1  0.92854713  0.62808823  0.47689707  1
  H  H8  1  0.92993232  0.47688357  0.62985493  1
  H  H9  1  0.86204455  0.51733706  0.66959778  1
  H  H10  1  0.97423877  0.59814244  0.44718856  1
  H  H11  1  0.03686268  0.55633726  0.40531459  1
  H  H12  1  0.04096010  0.40560175  0.55862502  1
  H  H13  1  0.97835211  0.44744905  0.60048543  1
  H  H14  1  0.08166676  0.52630872  0.37518839  1
  H  H15  1  0.13953107  0.48347007  0.33162119  1
  H  H16  1  0.14053110  0.33128762  0.48351793  1
  H  H17  1  0.08317318  0.37434092  0.52720692  1
  H  H18  1  0.28453439  0.41226657  0.45051038  1
  H  H19  1  0.34870595  0.44910544  0.49618577  1
  H  H20  1  0.50179033  0.43680450  0.41133329  1
  H  H21  1  0.43749119  0.40038825  0.36529644  1
  H  H22  1  0.39403203  0.47847562  0.52669977  1
  H  H23  1  0.45669009  0.52038210  0.56845096  1
  H  H24  1  0.61073120  0.50610085  0.48586104  1
  H  H25  1  0.54804202  0.46416430  0.44414095  1
  H  H26  1  0.50160385  0.55061062  0.59830821  1
  H  H27  1  0.56263914  0.59711890  0.63621168  1
  H  H28  1  0.71627232  0.58674507  0.55088367  1
  H  H29  1  0.65530990  0.53971304  0.51344014  1
  H  H30  1  0.57640710  0.77526184  0.65876286  1
  H  H31  1  0.51701620  0.86078258  0.61948369  1
  H  H32  1  0.64398589  0.93974509  0.48880055  1
  H  H33  1  0.70311853  0.85404286  0.52785409  1
  H  H34  1  0.47246179  0.92115205  0.58971992  1
  H  H35  1  0.40966117  0.00472007  0.54788678  1
  H  H36  1  0.53750952  0.08511909  0.41824685  1
  H  H37  1  0.60031209  0.00153374  0.46012496  1
  H  H38  1  0.36447556  0.06463488  0.51779746  1
  H  H39  1  0.29872327  0.14608018  0.47369809  1
  H  H40  1  0.42395089  0.22574383  0.34169709  1
  H  H41  1  0.48998798  0.14445965  0.38613760  1
  H  H42  1  0.14332211  0.18259093  0.33288011  1
  H  H43  1  0.08551357  0.09607516  0.37672897  1
  H  H44  1  0.07935212  0.10083515  0.52630744  1
  H  H45  1  0.13674761  0.18762975  0.48228552  1
  H  H46  1  0.04110675  0.03561288  0.40711143  1
  H  H47  1  0.97830083  0.95204819  0.44885422  1
  H  H48  1  0.97395069  0.95478518  0.59950220  1
  H  H49  1  0.03679294  0.03834558  0.55773507  1
  H  H50  1  0.93307581  0.89215816  0.47873923  1
  H  H51  1  0.86580680  0.81166661  0.51837841  1
  H  H52  1  0.85743308  0.81602114  0.66805116  1
  H  H53  1  0.92522864  0.89619954  0.62854867  1
  H  H54  1  0.92829330  0.57401237  0.77240709  1
  H  H55  1  0.99314445  0.53710920  0.85449317  1
  H  H56  1  0.85907241  0.57668440  0.93792245  1
  H  H57  1  0.79399957  0.61317389  0.85595671  1
  H  H58  1  0.03842382  0.50774363  0.91440610  1
  H  H59  1  0.10112175  0.46583359  0.99803780  1
  H  H60  1  0.96873836  0.50731959  0.08128909  1
  H  H61  1  0.90606891  0.54925403  0.99762092  1
  H  H62  1  0.14606970  0.43560200  0.05810143  1
  H  H63  1  0.20649800  0.38915160  0.14289391  1
  H  H64  1  0.07269603  0.42682617  0.22795001  1
  H  H65  1  0.01257014  0.47377851  0.14294937  1
  H  H66  1  0.30111799  0.47568302  0.14775050  1
  H  H67  1  0.36715556  0.51966011  0.06641056  1
  H  H68  1  0.48786846  0.38355992  0.14320420  1
  H  H69  1  0.42153566  0.33936428  0.22437755  1
  H  H70  1  0.41271478  0.54992340  0.00667363  1
  H  H71  1  0.47534275  0.59171698  0.92299793  1
  H  H72  1  0.59793312  0.45715757  0.00008831  1
  H  H73  1  0.53529026  0.41539605  0.08377320  1
  H  H74  1  0.52018160  0.62166051  0.86286569  1
  H  H75  1  0.57940230  0.66123146  0.77731376  1
  H  H76  1  0.70015084  0.52509590  0.85233313  1
  H  H77  1  0.64122009  0.48583140  0.93808539  1
  C  C78  1  0.17988224  0.38004468  0.38014651  1
  C  C79  1  0.17988224  0.23981099  0.38014433  1
  C  C80  1  0.17988224  0.38004433  0.23990917  1
  C  C81  1  0.32011776  0.38004468  0.38014651  1
  C  C82  1  0.32011776  0.23981099  0.38014433  1
  C  C83  1  0.32011776  0.38004433  0.23990917  1
  C  C84  1  0.67988224  0.61988908  0.61998597  1
  C  C85  1  0.67988224  0.76012277  0.61998816  1
  C  C86  1  0.67988224  0.61988943  0.76022332  1
  C  C87  1  0.82011775  0.61988908  0.61998597  1
  C  C88  1  0.82011776  0.76012277  0.61998816  1
  C  C89  1  0.82011775  0.61988943  0.76022332  1
  C  C90  1  0.85613313  0.59587869  0.59597607  1
  C  C91  1  0.87563173  0.62783662  0.54078979  1
  C  C92  1  0.91441231  0.60456097  0.51788541  1
  C  C93  1  0.93377370  0.54933730  0.55024364  1
  C  C94  1  0.91517423  0.51764692  0.60576290  1
  C  C95  1  0.87617841  0.54087714  0.62859612  1
  C  C96  1  0.97119345  0.52572827  0.52676481  1
  C  C97  1  0.98839106  0.55716247  0.47084290  1
  C  C98  1  0.02440606  0.53319644  0.44682213  1
  C  C99  1  0.04313035  0.47775049  0.47876524  1
  C  C100  1  0.02673459  0.44655750  0.53493070  1
  C  C101  1  0.99075434  0.47056927  0.55896434  1
  C  C102  1  0.07765369  0.45336741  0.45428087  1
  C  C103  1  0.09417546  0.48483279  0.39819803  1
  C  C104  1  0.12740648  0.46022064  0.37315163  1
  C  C105  1  0.14386687  0.40405507  0.40415641  1
  C  C106  1  0.12798573  0.37274345  0.46046877  1
  C  C107  1  0.09501731  0.39746475  0.48558928  1
  C  C108  1  0.35613313  0.40405507  0.40415640  1
  C  C109  1  0.33071565  0.41759497  0.44209155  1
  C  C110  1  0.36756957  0.43871340  0.46836475  1
  C  C111  1  0.42988037  0.44617850  0.45675517  1
  C  C112  1  0.45554193  0.43169825  0.41957177  1
  C  C113  1  0.41861412  0.41078205  0.39312405  1
  C  C114  1  0.46629297  0.46872396  0.48193093  1
  C  C115  1  0.44012237  0.48443470  0.51798119  1
  C  C116  1  0.47609695  0.50841850  0.54200961  1
  C  C117  1  0.53824207  0.51673583  0.52988872  1
  C  C118  1  0.56462160  0.50023177  0.49451990  1
  C  C119  1  0.52862509  0.47618256  0.47053392  1
  C  C120  1  0.57379871  0.54217880  0.55266341  1
  C  C121  1  0.54724972  0.55832628  0.58821964  1
  C  C122  1  0.58230773  0.58506721  0.60998834  1
  C  C123  1  0.64386687  0.59587869  0.59597608  1
  C  C124  1  0.67062149  0.57909834  0.56094299  1
  C  C125  1  0.63560451  0.55207786  0.53940992  1
  C  C126  1  0.64386598  0.80814468  0.59597723  1
  C  C127  1  0.59070974  0.81020758  0.62255398  1
  C  C128  1  0.55661426  0.85933395  0.60002749  1
  C  C129  1  0.57578052  0.90642747  0.55096372  1
  C  C130  1  0.62953999  0.90470884  0.52489470  1
  C  C131  1  0.66350918  0.85548428  0.54732116  1
  C  C132  1  0.54071436  0.95499545  0.52773112  1
  C  C133  1  0.48622356  0.95603140  0.55320293  1
  C  C134  1  0.45021305  0.00402103  0.52923779  1
  C  C135  1  0.46871776  0.05093525  0.47974414  1
  C  C136  1  0.52368178  0.05021642  0.45471736  1
  C  C137  1  0.55973003  0.00221376  0.47873984  1
  C  C138  1  0.43182686  0.09831380  0.45498272  1
  C  C139  1  0.37708743  0.09889813  0.48033793  1
  C  C140  1  0.33929006  0.14568503  0.45499594  1
  C  C141  1  0.35613402  0.19178908  0.40415525  1
  C  C142  1  0.41127871  0.19147920  0.37912101  1
  C  C143  1  0.44923637  0.14477501  0.40463975  1
  C  C144  1  0.14386598  0.19178908  0.40415525  1
  C  C145  1  0.12960750  0.16526448  0.37398004  1
  C  C146  1  0.09644650  0.11555048  0.39916688  1
  C  C147  1  0.07765839  0.09232542  0.45458497  1
  C  C148  1  0.09284865  0.11829916  0.48511540  1
  C  C149  1  0.12581455  0.16815462  0.45983441  1
  C  C150  1  0.04309218  0.04344306  0.47916434  1
  C  C151  1  0.02673302  0.01842717  0.44801565  1
  C  C152  1  0.99075338  0.97041814  0.47199342  1
  C  C153  1  0.97109331  0.94750469  0.52712048  1
  C  C154  1  0.98823324  0.97201006  0.55856630  1
  C  C155  1  0.02428594  0.02000992  0.53457944  1
  C  C156  1  0.93368389  0.90045219  0.55052159  1
  C  C157  1  0.91695593  0.87596349  0.51898639  1
  C  C158  1  0.87828728  0.82972449  0.54174867  1
  C  C159  1  0.85613402  0.80814468  0.59597723  1
  C  C160  1  0.87347964  0.83222536  0.62778668  1
  C  C161  1  0.91242993  0.87830536  0.60510038  1
  C  C162  1  0.85613458  0.59587800  0.80824574  1
  C  C163  1  0.91352146  0.57447338  0.80764777  1
  C  C164  1  0.95079858  0.55331489  0.85477281  1
  C  C165  1  0.93069230  0.55367788  0.90245733  1
  C  C166  1  0.87373967  0.57600479  0.90274711  1
  C  C167  1  0.83635647  0.59696411  0.85567002  1
  C  C168  1  0.96737476  0.53110692  0.95000835  1
  C  C169  1  0.02360277  0.50756998  0.94995148  1
  C  C170  1  0.05963386  0.48358096  0.99792764  1
  C  C171  1  0.03933600  0.48309417  0.04596935  1
  C  C172  1  0.98353236  0.50740397  0.04577888  1
  C  C173  1  0.94752514  0.53145406  0.99775094  1
  C  C174  1  0.07459121  0.45767997  0.09437603  1
  C  C175  1  0.13047813  0.43370275  0.09423839  1
  C  C176  1  0.16519745  0.40699412  0.14296045  1
  C  C177  1  0.14386542  0.40405576  0.19188674  1
  C  C178  1  0.08828581  0.42865618  0.19185072  1
  C  C179  1  0.05371539  0.45563412  0.14301693  1
  C  C180  1  0.35613458  0.40405576  0.19188674  1
  C  C181  1  0.34076927  0.45603903  0.14673411  1
  C  C182  1  0.37871335  0.48132772  0.10002852  1
  C  C183  1  0.43209421  0.45464236  0.09855681  1
  C  C184  1  0.44806464  0.40309943  0.14412508  1
  C  C185  1  0.40996690  0.37770790  0.19075280  1
  C  C186  1  0.46906622  0.47932840  0.05118788  1
  C  C187  1  0.45208547  0.53018478  0.00520702  1
  C  C188  1  0.48807245  0.55421721  0.95720312  1
  C  C189  1  0.54100441  0.52730097  0.95521238  1
  C  C190  1  0.55851177  0.47686613  0.00150489  1
  C  C191  1  0.52252791  0.45286408  0.04954752  1
  C  C192  1  0.57599140  0.55056666  0.90663702  1
  C  C193  1  0.55844226  0.60113315  0.86059398  1
  C  C194  1  0.59245245  0.62386818  0.81142596  1
  C  C195  1  0.64386541  0.59587800  0.80824574  1
  C  C196  1  0.66186514  0.54561537  0.85455253  1
  C  C197  1  0.62800892  0.52303272  0.90383549  1
  O  O198  1  0.19820796  0.33549031  0.40846413  1
  O  O199  1  0.19820796  0.25604747  0.33559032  1
  O  O200  1  0.19820796  0.40835844  0.25615311  1
  O  O201  1  0.19820796  0.40836316  0.33559269  1
  O  O202  1  0.19820796  0.33548645  0.25615198  1
  O  O203  1  0.19820796  0.25604661  0.40846290  1
  O  O204  1  0.30179204  0.33549031  0.40846413  1
  O  O205  1  0.30179204  0.25604747  0.33559032  1
  O  O206  1  0.30179204  0.40835844  0.25615311  1
  O  O207  1  0.30179204  0.40836316  0.33559269  1
  O  O208  1  0.30179204  0.33548645  0.25615198  1
  O  O209  1  0.30179204  0.25604661  0.40846290  1
  O  O210  1  0.24999587  0.33333333  0.33333333  1
  O  O211  1  0.69820796  0.66444345  0.59166835  1
  O  O212  1  0.69820796  0.74388629  0.66454216  1
  O  O213  1  0.69820796  0.59157532  0.74397937  1
  O  O214  1  0.69820795  0.59157060  0.66453979  1
  O  O215  1  0.69820796  0.66444730  0.74398051  1
  O  O216  1  0.69820796  0.74388715  0.59166958  1
  O  O217  1  0.80179204  0.66444345  0.59166835  1
  O  O218  1  0.80179204  0.74388629  0.66454216  1
  O  O219  1  0.80179204  0.59157532  0.74397937  1
  O  O220  1  0.80179204  0.59157060  0.66453979  1
  O  O221  1  0.80179204  0.66444731  0.74398051  1
  O  O222  1  0.80179204  0.74388715  0.59166958  1
  O  O223  1  0.74999587  0.66666667  0.66666667  1
