# generated using pymatgen
data_Al3H36C60O13
_symmetry_space_group_name_H-M   'P 1'
_cell_length_a   24.20642107
_cell_length_b   30.52452387
_cell_length_c   30.52485003
_cell_angle_alpha   60.00035414
_cell_angle_beta   90.00000005
_cell_angle_gamma   90.00000026
_symmetry_Int_Tables_number   1
_chemical_formula_structural   Al3H36C60O13
_chemical_formula_sum   'Al6 H72 C120 O26'
_cell_volume   19532.83144310
_cell_formula_units_Z   2
loop_
 _symmetry_equiv_pos_site_id
 _symmetry_equiv_pos_as_xyz
  1  'x, y, z'
loop_
 _atom_site_type_symbol
 _atom_site_label
 _atom_site_symmetry_multiplicity
 _atom_site_fract_x
 _atom_site_fract_y
 _atom_site_fract_z
 _atom_site_occupancy
  Al  Al0  1  0.25000413  0.30049592  0.39901406  1
  Al  Al1  1  0.25000413  0.39891859  0.30059220  1
  Al  Al2  1  0.25000413  0.30049204  0.30059373  1
  Al  Al3  1  0.75000413  0.69943784  0.60111842  1
  Al  Al4  1  0.75000413  0.60101517  0.69954028  1
  Al  Al5  1  0.75000413  0.69944171  0.69953875  1
  H  H6  1  0.21446060  0.40855172  0.45359261  1
  H  H7  1  0.15293767  0.45518566  0.49113867  1
  H  H8  1  0.00297413  0.45443057  0.39670417  1
  H  H9  1  0.06439265  0.40736120  0.35950881  1
  H  H10  1  0.10796668  0.48586802  0.52056380  1
  H  H11  1  0.04525810  0.52758596  0.56247177  1
  H  H12  1  0.89557347  0.52942097  0.46650653  1
  H  H13  1  0.95832666  0.48772282  0.42458827  1
  H  H14  1  0.00022797  0.55738284  0.59268748  1
  H  H15  1  0.93660984  0.59433600  0.63852170  1
  H  H16  1  0.78538579  0.59287557  0.54579652  1
  H  H17  1  0.84921226  0.55643874  0.49955900  1
  H  H18  1  0.56018022  0.62232220  0.61262118  1
  H  H19  1  0.49822378  0.58498933  0.56604681  1
  H  H20  1  0.65656076  0.52778890  0.52455759  1
  H  H21  1  0.71848779  0.56473418  0.57155711  1
  H  H22  1  0.45334205  0.55552023  0.53535229  1
  H  H23  1  0.39058434  0.51363633  0.49364118  1
  H  H24  1  0.54855341  0.45828480  0.44965052  1
  H  H25  1  0.61129330  0.50020970  0.49135039  1
  H  H26  1  0.34550402  0.48344523  0.46385125  1
  H  H27  1  0.28224746  0.43743302  0.42684858  1
  H  H28  1  0.43954330  0.37841535  0.38603462  1
  H  H29  1  0.50279345  0.42493649  0.42255039  1
  H  H30  1  0.30651977  0.15104930  0.47955145  1
  H  H31  1  0.36587814  0.06550811  0.51886897  1
  H  H32  1  0.47297994  0.13374382  0.37327689  1
  H  H33  1  0.41391079  0.21948597  0.33414847  1
  H  H34  1  0.41054012  0.00520629  0.54850574  1
  H  H35  1  0.47329820  0.92161151  0.59038905  1
  H  H36  1  0.57916898  0.98818912  0.44416966  1
  H  H37  1  0.51636313  0.07177241  0.40229546  1
  H  H38  1  0.51843301  0.86166476  0.62053829  1
  H  H39  1  0.58417133  0.78021067  0.66465412  1
  H  H40  1  0.69310203  0.84779984  0.52027742  1
  H  H41  1  0.62694753  0.92901018  0.47597553  1
  H  H42  1  0.07215166  0.22734873  0.34590611  1
  H  H43  1  0.01240544  0.14205144  0.38479640  1
  H  H44  1  0.14773641  0.05782941  0.50624785  1
  H  H45  1  0.20725651  0.14328797  0.46761616  1
  H  H46  1  0.96780738  0.08170942  0.41450359  1
  H  H47  1  0.90501156  0.99813838  0.45634533  1
  H  H48  1  0.04104293  0.91259193  0.57658497  1
  H  H49  1  0.10383719  0.99618251  0.53469800  1
  H  H50  1  0.85983934  0.93821514  0.48645337  1
  H  H51  1  0.79443114  0.85655346  0.53093282  1
  H  H52  1  0.92811834  0.77156846  0.65380358  1
  H  H53  1  0.99376886  0.85309574  0.60894653  1
  H  H54  1  0.19330514  0.47955735  0.15125692  1
  H  H55  1  0.13395830  0.51888755  0.06570947  1
  H  H56  1  0.02720836  0.37309130  0.13372368  1
  H  H57  1  0.08626507  0.33394904  0.21947265  1
  H  H58  1  0.08929840  0.54852580  0.00540700  1
  H  H59  1  0.02654068  0.59040871  0.92181289  1
  H  H60  1  0.92102637  0.44399147  0.98816615  1
  H  H61  1  0.98383185  0.40211778  0.07174878  1
  H  H62  1  0.98140576  0.62055729  0.86186684  1
  H  H63  1  0.91565738  0.66466040  0.78041987  1
  H  H64  1  0.80707574  0.52007599  0.84778928  1
  H  H65  1  0.87324128  0.47578830  0.92899190  1
  H  H66  1  0.71734510  0.57771469  0.86399283  1
  H  H67  1  0.65376149  0.54084453  0.94687596  1
  H  H68  1  0.49716313  0.57302715  0.84751507  1
  H  H69  1  0.56082236  0.60947991  0.76466043  1
  H  H70  1  0.60851254  0.51148028  0.00680801  1
  H  H71  1  0.54584461  0.46957177  0.09045859  1
  H  H72  1  0.38856962  0.50369094  0.99155609  1
  H  H73  1  0.45127249  0.54562547  0.90790894  1
  H  H74  1  0.50090637  0.43934097  0.15052832  1
  H  H75  1  0.43929965  0.39286134  0.23457980  1
  H  H76  1  0.28199326  0.42313219  0.13657033  1
  H  H77  1  0.34359178  0.47012125  0.05249570  1
  C  C78  1  0.32011776  0.23980881  0.38014651  1
  C  C79  1  0.32011776  0.38004468  0.38014433  1
  C  C80  1  0.32011776  0.38004651  0.23990917  1
  C  C81  1  0.17988224  0.23980881  0.38014651  1
  C  C82  1  0.17988224  0.38004468  0.38014433  1
  C  C83  1  0.17988224  0.38004651  0.23990917  1
  C  C84  1  0.82011776  0.76012495  0.61998597  1
  C  C85  1  0.82011776  0.61988908  0.61998816  1
  C  C86  1  0.82011776  0.61988725  0.76022332  1
  C  C87  1  0.67988224  0.76012495  0.61998597  1
  C  C88  1  0.67988224  0.61988908  0.61998816  1
  C  C89  1  0.67988224  0.61988725  0.76022332  1
  C  C90  1  0.14386598  0.40405567  0.40415525  1
  C  C91  1  0.16944845  0.41820460  0.44158480  1
  C  C92  1  0.13413723  0.44502822  0.46312302  1
  C  C93  1  0.07325814  0.45778916  0.44711834  1
  C  C94  1  0.04793336  0.44455581  0.40890016  1
  C  C95  1  0.08320585  0.41751787  0.38753314  1
  C  C96  1  0.03762814  0.48322830  0.46989259  1
  C  C97  1  0.06275663  0.49508329  0.50914290  1
  C  C98  1  0.02679107  0.51909950  0.53314458  1
  C  C99  1  0.96566207  0.53117550  0.51790439  1
  C  C100  1  0.94075759  0.52012853  0.47800646  1
  C  C101  1  0.97677408  0.49615420  0.45395816  1
  C  C102  1  0.92931467  0.55369262  0.54310762  1
  C  C103  1  0.95453301  0.56491708  0.58274968  1
  C  C104  1  0.91798145  0.58613272  0.60910438  1
  C  C105  1  0.85613402  0.59587809  0.59597723  1
  C  C106  1  0.83105534  0.58529792  0.55579830  1
  C  C107  1  0.86771423  0.56435149  0.52922379  1
  C  C108  1  0.64386598  0.59587809  0.59597723  1
  C  C109  1  0.58066578  0.60211553  0.59399363  1
  C  C110  1  0.54507272  0.58071591  0.56720872  1
  C  C111  1  0.57273900  0.55317030  0.54231506  1
  C  C112  1  0.63604902  0.54779424  0.54340334  1
  C  C113  1  0.67162529  0.56901187  0.57039957  1
  C  C114  1  0.53690663  0.53049555  0.51690372  1
  C  C115  1  0.47355269  0.53476452  0.51717290  1
  C  C116  1  0.43752714  0.51079229  0.49316496  1
  C  C117  1  0.46492483  0.48249137  0.46895879  1
  C  C118  1  0.52832012  0.47895987  0.46790663  1
  C  C119  1  0.56435074  0.50300127  0.49187897  1
  C  C120  1  0.42881190  0.45717275  0.44640958  1
  C  C121  1  0.36547556  0.46108550  0.44731917  1
  C  C122  1  0.32911989  0.43463436  0.42607672  1
  C  C123  1  0.35613402  0.40405567  0.40415525  1
  C  C124  1  0.41953956  0.40071445  0.40261103  1
  C  C125  1  0.45590347  0.42743414  0.42359786  1
  C  C126  1  0.35613313  0.19178852  0.40415641  1
  C  C127  1  0.34200165  0.14741106  0.45699952  1
  C  C128  1  0.37605593  0.09825879  0.47957460  1
  C  C129  1  0.42417601  0.09347895  0.44922013  1
  C  C130  1  0.43764819  0.13747689  0.39593545  1
  C  C131  1  0.40372424  0.18672990  0.37345561  1
  C  C132  1  0.45917634  0.04486958  0.47253039  1
  C  C133  1  0.44647223  0.00157743  0.52636890  1
  C  C134  1  0.48243846  0.95355996  0.55038627  1
  C  C135  1  0.53115951  0.94892134  0.52053317  1
  C  C136  1  0.54330028  0.99183969  0.46635599  1
  C  C137  1  0.50726477  0.03985036  0.44231850  1
  C  C138  1  0.56814006  0.90159915  0.54518875  1
  C  C139  1  0.55559758  0.85870392  0.59924655  1
  C  C140  1  0.59337687  0.81190566  0.62460985  1
  C  C141  1  0.64386687  0.80814524  0.59597608  1
  C  C142  1  0.65598923  0.85075668  0.54161485  1
  C  C143  1  0.61799110  0.89743542  0.51614390  1
  C  C144  1  0.14386687  0.19178852  0.40415640  1
  C  C145  1  0.08816509  0.19132683  0.38007707  1
  C  C146  1  0.05386182  0.14233114  0.40237789  1
  C  C147  1  0.07536011  0.09377067  0.44870915  1
  C  C148  1  0.13159600  0.09393157  0.47220902  1
  C  C149  1  0.16578818  0.14301589  0.45002465  1
  C  C150  1  0.04018676  0.04527011  0.47182883  1
  C  C151  1  0.98331511  0.04573179  0.44902855  1
  C  C152  1  0.94730154  0.99774409  0.47299377  1
  C  C153  1  0.96819152  0.94932946  0.51981832  1
  C  C154  1  0.02547518  0.94858914  0.54211324  1
  C  C155  1  0.06152144  0.99659305  0.51808760  1
  C  C156  1  0.93140939  0.90188249  0.54469246  1
  C  C157  1  0.87432440  0.90277361  0.52205450  1
  C  C158  1  0.83672563  0.85586182  0.54761665  1
  C  C159  1  0.85613313  0.80814524  0.59597608  1
  C  C160  1  0.91357671  0.80700901  0.61824284  1
  C  C161  1  0.95131377  0.85385194  0.59248430  1
  C  C162  1  0.14386542  0.40405750  0.19188675  1
  C  C163  1  0.15790033  0.45696440  0.14757038  1
  C  C164  1  0.12385272  0.47954689  0.09841448  1
  C  C165  1  0.07583618  0.44913626  0.09356974  1
  C  C166  1  0.06246257  0.39579029  0.13750535  1
  C  C167  1  0.09637938  0.37330249  0.18676227  1
  C  C168  1  0.04083935  0.47245027  0.04495871  1
  C  C169  1  0.05344202  0.52634663  0.00173067  1
  C  C170  1  0.01747613  0.55036397  0.95371350  1
  C  C171  1  0.96885681  0.52045276  0.94901109  1
  C  C172  1  0.95681914  0.46621992  0.99186432  1
  C  C173  1  0.99285439  0.44218263  0.03987464  1
  C  C174  1  0.93187349  0.54510430  0.90169114  1
  C  C175  1  0.94431321  0.59921862  0.85886083  1
  C  C176  1  0.90652808  0.62457458  0.81206669  1
  C  C177  1  0.85613458  0.59587626  0.80824574  1
  C  C178  1  0.84411638  0.54146019  0.85079138  1
  C  C179  1  0.88212088  0.51599736  0.89746567  1
  C  C180  1  0.64386542  0.59587626  0.80824574  1
  C  C181  1  0.67052853  0.57660949  0.86050319  1
  C  C182  1  0.63401745  0.55547093  0.90810993  1
  C  C183  1  0.57081513  0.55371537  0.90340522  1
  C  C184  1  0.54402011  0.57391212  0.85102970  1
  C  C185  1  0.58058005  0.59485005  0.80343493  1
  C  C186  1  0.53457742  0.53115616  0.95123591  1
  C  C187  1  0.56172454  0.50973991  0.00361009  1
  C  C188  1  0.52575307  0.48575283  0.05162375  1
  C  C189  1  0.46262543  0.48314452  0.04720274  1
  C  C190  1  0.43536692  0.50534159  0.99477802  1
  C  C191  1  0.47136731  0.52939107  0.94674578  1
  C  C192  1  0.42689230  0.45771859  0.09530889  1
  C  C193  1  0.45435545  0.43586142  0.14758654  1
  C  C194  1  0.41896718  0.40913620  0.19588796  1
  C  C195  1  0.35613458  0.40405750  0.19188675  1
  C  C196  1  0.32854257  0.42654242  0.13954764  1
  C  C197  1  0.36392373  0.45354055  0.09122364  1
  O  O198  1  0.30179204  0.25604556  0.40846414  1
  O  O199  1  0.30179204  0.40836221  0.33559032  1
  O  O200  1  0.30179204  0.33548845  0.25615311  1
  O  O201  1  0.30179204  0.25604415  0.33559269  1
  O  O202  1  0.30179204  0.40836157  0.25615197  1
  O  O203  1  0.30179204  0.33549050  0.40846290  1
  O  O204  1  0.19820796  0.25604556  0.40846414  1
  O  O205  1  0.19820796  0.40836221  0.33559032  1
  O  O206  1  0.19820796  0.33548845  0.25615311  1
  O  O207  1  0.19820796  0.25604415  0.33559269  1
  O  O208  1  0.19820796  0.40836157  0.25615198  1
  O  O209  1  0.19820796  0.33549050  0.40846290  1
  O  O210  1  0.25000413  0.33333333  0.33336759  1
  O  O211  1  0.80179204  0.74388820  0.59166835  1
  O  O212  1  0.80179204  0.59157155  0.66454216  1
  O  O213  1  0.80179204  0.66444531  0.74397937  1
  O  O214  1  0.80179204  0.74388961  0.66453979  1
  O  O215  1  0.80179204  0.59157219  0.74398051  1
  O  O216  1  0.80179204  0.66444326  0.59166958  1
  O  O217  1  0.69820796  0.74388820  0.59166835  1
  O  O218  1  0.69820796  0.59157155  0.66454216  1
  O  O219  1  0.69820796  0.66444531  0.74397937  1
  O  O220  1  0.69820796  0.74388961  0.66453979  1
  O  O221  1  0.69820796  0.59157219  0.74398051  1
  O  O222  1  0.69820796  0.66444326  0.59166958  1
  O  O223  1  0.75000413  0.66663031  0.66670302  1
