# generated using pymatgen
data_Al3H36C60O13
_symmetry_space_group_name_H-M   'P 1'
_cell_length_a   24.20642108
_cell_length_b   30.52452375
_cell_length_c   30.52485019
_cell_angle_alpha   60.00035411
_cell_angle_beta   89.99999985
_cell_angle_gamma   90.00000019
_symmetry_Int_Tables_number   1
_chemical_formula_structural   Al3H36C60O13
_chemical_formula_sum   'Al6 H72 C120 O26'
_cell_volume   19532.83147181
_cell_formula_units_Z   2
loop_
 _symmetry_equiv_pos_site_id
 _symmetry_equiv_pos_as_xyz
  1  'x, y, z'
loop_
 _atom_site_type_symbol
 _atom_site_label
 _atom_site_symmetry_multiplicity
 _atom_site_fract_x
 _atom_site_fract_y
 _atom_site_fract_z
 _atom_site_occupancy
  Al  Al0  1  0.25000413  0.30049592  0.39901406  1
  Al  Al1  1  0.25000413  0.39891859  0.30059220  1
  Al  Al2  1  0.25000413  0.30049204  0.30059373  1
  Al  Al3  1  0.75000413  0.69943784  0.60111842  1
  Al  Al4  1  0.75000413  0.60101517  0.69954028  1
  Al  Al5  1  0.75000413  0.69944172  0.69953875  1
  H  H6  1  0.06775541  0.35208925  0.41779701  1
  H  H7  1  0.00754120  0.39053994  0.46434921  1
  H  H8  1  0.15146386  0.49924189  0.44527300  1
  H  H9  1  0.21149408  0.46108689  0.39829034  1
  H  H10  1  0.96288504  0.42018275  0.49501187  1
  H  H11  1  0.90009690  0.46203582  0.53673467  1
  H  H12  1  0.04448826  0.56933818  0.52023670  1
  H  H13  1  0.10727066  0.52744002  0.47853683  1
  H  H14  1  0.85494354  0.49216643  0.56653916  1
  H  H15  1  0.78999079  0.53707831  0.60357548  1
  H  H16  1  0.93239861  0.64731379  0.58380981  1
  H  H17  1  0.99753894  0.60198427  0.54729110  1
  H  H18  1  0.29795630  0.38133119  0.47300426  1
  H  H19  1  0.36376811  0.41856297  0.51725523  1
  H  H20  1  0.49070671  0.46828354  0.38682526  1
  H  H21  1  0.42462025  0.43144732  0.34233239  1
  H  H22  1  0.40930033  0.44801501  0.54755774  1
  H  H23  1  0.47193168  0.48990223  0.58934499  1
  H  H24  1  0.60063295  0.53773732  0.46057593  1
  H  H25  1  0.53798428  0.49581004  0.41882108  1
  H  H26  1  0.51677921  0.52009943  0.61927522  1
  H  H27  1  0.57621932  0.56621171  0.65857784  1
  H  H28  1  0.70325646  0.61777423  0.52804066  1
  H  H29  1  0.64407875  0.57114632  0.48907066  1
  H  H30  1  0.28252827  0.13596138  0.44079249  1
  H  H31  1  0.34493988  0.05234028  0.47794242  1
  H  H32  1  0.50129579  0.15155119  0.40893765  1
  H  H33  1  0.43891141  0.23520850  0.37217617  1
  H  H34  1  0.39003271  0.99230940  0.50732655  1
  H  H35  1  0.45272360  0.90867238  0.54923680  1
  H  H36  1  0.60920738  0.00707976  0.47847941  1
  H  H37  1  0.54647535  0.09070947  0.43655180  1
  H  H38  1  0.49771369  0.84863461  0.57946376  1
  H  H39  1  0.56046466  0.76530187  0.62567825  1
  H  H40  1  0.71784414  0.86335979  0.55849774  1
  H  H41  1  0.65497623  0.94663698  0.51182380  1
  H  H42  1  0.06652987  0.23088464  0.41482366  1
  H  H43  1  0.00231010  0.14840064  0.45166251  1
  H  H44  1  0.14700162  0.05829097  0.43445151  1
  H  H45  1  0.21138889  0.14068870  0.39803463  1
  H  H46  1  0.95711967  0.08843114  0.48102984  1
  H  H47  1  0.89440712  0.00480773  0.52293637  1
  H  H48  1  0.03769065  0.91469956  0.50375252  1
  H  H49  1  0.10037601  0.99835862  0.46181688  1
  H  H50  1  0.84942866  0.94476265  0.55316533  1
  H  H51  1  0.78838128  0.86035857  0.59967291  1
  H  H52  1  0.93263614  0.76872682  0.58438715  1
  H  H53  1  0.99344283  0.85330024  0.53735859  1
  H  H54  1  0.80981183  0.63441843  0.84691475  1
  H  H55  1  0.86897355  0.58831537  0.93257865  1
  H  H56  1  0.96941333  0.50323869  0.86853401  1
  H  H57  1  0.91055723  0.54972038  0.78265885  1
  H  H58  1  0.91360575  0.55766334  0.99289856  1
  H  H59  1  0.97636816  0.51595210  0.07648972  1
  H  H60  1  0.07549471  0.42865712  0.01415483  1
  H  H61  1  0.01268478  0.47036813  0.93057500  1
  H  H62  1  0.02151259  0.48615185  0.13642978  1
  H  H63  1  0.08744276  0.44869958  0.21776239  1
  H  H64  1  0.18976196  0.36415700  0.15433252  1
  H  H65  1  0.12339831  0.40119646  0.07325453  1
  H  H66  1  0.30987653  0.36544209  0.15325842  1
  H  H67  1  0.36903460  0.41154272  0.06759222  1
  H  H68  1  0.46934347  0.49676483  0.13155454  1
  H  H69  1  0.41049132  0.45028580  0.21743219  1
  H  H70  1  0.41366625  0.44219449  0.00727197  1
  H  H71  1  0.47642875  0.48390575  0.92368087  1
  H  H72  1  0.57542287  0.57134482  0.98593247  1
  H  H73  1  0.51261285  0.52963376  0.06951224  1
  H  H74  1  0.52157338  0.51370608  0.86374093  1
  H  H75  1  0.58750713  0.55116069  0.78241057  1
  H  H76  1  0.68969636  0.63584940  0.84575871  1
  H  H77  1  0.62332881  0.59880727  0.92683424  1
  C  C78  1  0.32011776  0.23980881  0.38014651  1
  C  C79  1  0.32011776  0.38004468  0.38014433  1
  C  C80  1  0.32011776  0.38004651  0.23990917  1
  C  C81  1  0.17988224  0.23980881  0.38014651  1
  C  C82  1  0.17988224  0.38004468  0.38014433  1
  C  C83  1  0.17988224  0.38004651  0.23990917  1
  C  C84  1  0.82011776  0.76012496  0.61998597  1
  C  C85  1  0.82011776  0.61988908  0.61998816  1
  C  C86  1  0.82011776  0.61988725  0.76022332  1
  C  C87  1  0.67988224  0.76012495  0.61998597  1
  C  C88  1  0.67988224  0.61988908  0.61998816  1
  C  C89  1  0.67988224  0.61988725  0.76022332  1
  C  C90  1  0.14386598  0.40405567  0.40415525  1
  C  C91  1  0.08550717  0.38346435  0.42353711  1
  C  C92  1  0.05093044  0.40551028  0.45031485  1
  C  C93  1  0.07480434  0.44808754  0.45779217  1
  C  C94  1  0.13360658  0.46801860  0.43931431  1
  C  C95  1  0.16809223  0.44610769  0.41232551  1
  C  C96  1  0.03949064  0.47108046  0.48321152  1
  C  C97  1  0.98017849  0.45196477  0.50033059  1
  C  C98  1  0.94416185  0.47593120  0.52434993  1
  C  C99  1  0.96749837  0.51907427  0.53116024  1
  C  C100  1  0.02714265  0.53761706  0.51484245  1
  C  C101  1  0.06318564  0.51358702  0.49086651  1
  C  C102  1  0.93085947  0.54407608  0.55369549  1
  C  C103  1  0.87138147  0.52517540  0.57019998  1
  C  C104  1  0.83404568  0.55098812  0.59146449  1
  C  C105  1  0.85613402  0.59587810  0.59597723  1
  C  C106  1  0.91590913  0.61435072  0.58010721  1
  C  C107  1  0.95335475  0.58831992  0.55911175  1
  C  C108  1  0.35613402  0.40405567  0.40415525  1
  C  C109  1  0.33888883  0.39992749  0.45461867  1
  C  C110  1  0.37670079  0.42126893  0.48006637  1
  C  C111  1  0.43182593  0.44664377  0.45506640  1
  C  C112  1  0.44963204  0.44989298  0.40509409  1
  C  C113  1  0.41167610  0.42873775  0.37953196  1
  C  C114  1  0.46872975  0.46929043  0.47983204  1
  C  C115  1  0.44997429  0.46717435  0.52904547  1
  C  C116  1  0.48595943  0.49114763  0.55307776  1
  C  C117  1  0.54066932  0.51729571  0.52780242  1
  C  C118  1  0.55991209  0.51866046  0.47905338  1
  C  C119  1  0.52392673  0.49461788  0.45505375  1
  C  C120  1  0.57572616  0.54264202  0.55098807  1
  C  C121  1  0.55642442  0.54089603  0.59987970  1
  C  C122  1  0.59056122  0.56740534  0.62245934  1
  C  C123  1  0.64386598  0.59587810  0.59597723  1
  C  C124  1  0.66358854  0.59703971  0.54742493  1
  C  C125  1  0.62959148  0.57025797  0.52501173  1
  C  C126  1  0.35613313  0.19178852  0.40415640  1
  C  C127  1  0.32906971  0.13927833  0.43411840  1
  C  C128  1  0.36489803  0.09124169  0.45542345  1
  C  C129  1  0.42779421  0.09575433  0.44664954  1
  C  C130  1  0.45476712  0.14824269  0.41581844  1
  C  C131  1  0.41893981  0.19629873  0.39470171  1
  C  C132  1  0.46368558  0.04770530  0.46930040  1
  C  C133  1  0.43667302  0.99541477  0.50127210  1
  C  C134  1  0.47264074  0.94739824  0.52526726  1
  C  C135  1  0.53564593  0.95174271  0.51731267  1
  C  C136  1  0.56257777  0.00396295  0.48461929  1
  C  C137  1  0.52656813  0.05198989  0.46056973  1
  C  C138  1  0.57173005  0.90385679  0.54264257  1
  C  C139  1  0.54452879  0.85174287  0.57503911  1
  C  C140  1  0.58057868  0.80385704  0.60161259  1
  C  C141  1  0.64386687  0.80814524  0.59597608  1
  C  C142  1  0.67104406  0.86022443  0.56298992  1
  C  C143  1  0.63493531  0.90809135  0.53616818  1
  C  C144  1  0.14386687  0.19178853  0.40415640  1
  C  C145  1  0.08368107  0.19414701  0.41910759  1
  C  C146  1  0.04677076  0.14679080  0.44022648  1
  C  C147  1  0.07005738  0.09710540  0.44627992  1
  C  C148  1  0.12992657  0.09498112  0.43038959  1
  C  C149  1  0.16691619  0.14230622  0.40947283  1
  C  C150  1  0.03355889  0.04943818  0.46882632  1
  C  C151  1  0.97424717  0.05143466  0.48594634  1
  C  C152  1  0.93821595  0.00345806  0.50993058  1
  C  C153  1  0.96159217  0.95347959  0.51683750  1
  C  C154  1  0.02057928  0.95166773  0.49892607  1
  C  C155  1  0.05659224  0.99969258  0.47487708  1
  C  C156  1  0.92615119  0.90518922  0.54227805  1
  C  C157  1  0.86710788  0.90731218  0.55983662  1
  C  C158  1  0.83203015  0.85881498  0.58657736  1
  C  C159  1  0.85613313  0.80814524  0.59597608  1
  C  C160  1  0.91495109  0.80614440  0.57778497  1
  C  C161  1  0.94991294  0.85473258  0.55076592  1
  C  C162  1  0.85613458  0.59587626  0.80824574  1
  C  C163  1  0.84383906  0.60660905  0.85146790  1
  C  C164  1  0.87777943  0.58010285  0.90069127  1
  C  C165  1  0.92394451  0.54277347  0.90670071  1
  C  C166  1  0.93554496  0.53124392  0.86388055  1
  C  C167  1  0.90174320  0.55794093  0.81455125  1
  C  C168  1  0.95888812  0.51751218  0.95534522  1
  C  C169  1  0.94810718  0.53026857  0.99742725  1
  C  C170  1  0.98407361  0.50627098  0.04544408  1
  C  C171  1  0.03087224  0.46956763  0.05129184  1
  C  C172  1  0.04106012  0.45612116  0.00960227  1
  C  C173  1  0.00502312  0.48009420  0.96159305  1
  C  C174  1  0.06790878  0.44686324  0.09857831  1
  C  C175  1  0.05731332  0.46022585  0.14024844  1
  C  C176  1  0.09520382  0.43872529  0.18697629  1
  C  C177  1  0.14386542  0.40405750  0.19188675  1
  C  C178  1  0.15401550  0.39012361  0.15051629  1
  C  C179  1  0.11589673  0.41140560  0.10391388  1
  C  C180  1  0.35613458  0.40405750  0.19188675  1
  C  C181  1  0.34387522  0.39328193  0.14868733  1
  C  C182  1  0.37781347  0.41978671  0.09946263  1
  C  C183  1  0.42394018  0.45715741  0.09342905  1
  C  C184  1  0.43550381  0.46872924  0.13622605  1
  C  C185  1  0.40170431  0.44203377  0.18555677  1
  C  C186  1  0.45888274  0.48241795  0.04478388  1
  C  C187  1  0.44813959  0.46961994  0.00272561  1
  C  C188  1  0.48410603  0.49361750  0.95470879  1
  C  C189  1  0.53086689  0.53036251  0.94883728  1
  C  C190  1  0.54101644  0.54385014  0.99050274  1
  C  C191  1  0.50497940  0.51987709  0.03851194  1
  C  C192  1  0.56790449  0.55306767  0.90155147  1
  C  C193  1  0.55734726  0.53966365  0.85990538  1
  C  C194  1  0.59523984  0.56116555  0.81317884  1
  C  C195  1  0.64386542  0.59587626  0.80824574  1
  C  C196  1  0.65397680  0.60985124  0.84959186  1
  C  C197  1  0.61585577  0.58856773  0.89619284  1
  O  O198  1  0.30179204  0.25604556  0.40846413  1
  O  O199  1  0.30179204  0.40836221  0.33559032  1
  O  O200  1  0.30179204  0.33548845  0.25615311  1
  O  O201  1  0.30179204  0.25604415  0.33559269  1
  O  O202  1  0.30179204  0.40836157  0.25615198  1
  O  O203  1  0.30179204  0.33549050  0.40846290  1
  O  O204  1  0.19820796  0.25604556  0.40846414  1
  O  O205  1  0.19820796  0.40836221  0.33559032  1
  O  O206  1  0.19820796  0.33548845  0.25615311  1
  O  O207  1  0.19820796  0.25604415  0.33559269  1
  O  O208  1  0.19820796  0.40836157  0.25615198  1
  O  O209  1  0.19820796  0.33549050  0.40846290  1
  O  O210  1  0.25000413  0.33333333  0.33336759  1
  O  O211  1  0.80179204  0.74388820  0.59166835  1
  O  O212  1  0.80179204  0.59157155  0.66454216  1
  O  O213  1  0.80179204  0.66444531  0.74397937  1
  O  O214  1  0.80179204  0.74388961  0.66453979  1
  O  O215  1  0.80179204  0.59157219  0.74398051  1
  O  O216  1  0.80179204  0.66444327  0.59166958  1
  O  O217  1  0.69820796  0.74388820  0.59166835  1
  O  O218  1  0.69820796  0.59157155  0.66454216  1
  O  O219  1  0.69820796  0.66444531  0.74397937  1
  O  O220  1  0.69820796  0.74388961  0.66453979  1
  O  O221  1  0.69820796  0.59157219  0.74398051  1
  O  O222  1  0.69820796  0.66444327  0.59166958  1
  O  O223  1  0.75000413  0.66663032  0.66670302  1
