# generated using pymatgen
data_Al3H36C60O13
_symmetry_space_group_name_H-M   'P 1'
_cell_length_a   24.20642111
_cell_length_b   30.52452338
_cell_length_c   30.52484941
_cell_angle_alpha   60.00035578
_cell_angle_beta   89.99999961
_cell_angle_gamma   89.99999978
_symmetry_Int_Tables_number   1
_chemical_formula_structural   Al3H36C60O13
_chemical_formula_sum   'Al6 H72 C120 O26'
_cell_volume   19532.83109022
_cell_formula_units_Z   2
loop_
 _symmetry_equiv_pos_site_id
 _symmetry_equiv_pos_as_xyz
  1  'x, y, z'
loop_
 _atom_site_type_symbol
 _atom_site_label
 _atom_site_symmetry_multiplicity
 _atom_site_fract_x
 _atom_site_fract_y
 _atom_site_fract_z
 _atom_site_occupancy
  Al  Al0  1  0.25000413  0.30049592  0.39901406  1
  Al  Al1  1  0.25000413  0.39891859  0.30059220  1
  Al  Al2  1  0.25000413  0.30049204  0.30059373  1
  Al  Al3  1  0.75000413  0.69943785  0.60111842  1
  Al  Al4  1  0.75000413  0.60101518  0.69954028  1
  Al  Al5  1  0.75000413  0.69944172  0.69953875  1
  H  H6  1  0.07541007  0.34222961  0.43247024  1
  H  H7  1  0.01594254  0.38142037  0.47875194  1
  H  H8  1  0.14487358  0.51014764  0.43022301  1
  H  H9  1  0.20408980  0.47119004  0.38353105  1
  H  H10  1  0.97137884  0.41117147  0.50936446  1
  H  H11  1  0.90857931  0.45300676  0.55109788  1
  H  H12  1  0.03835029  0.58065217  0.50506292  1
  H  H13  1  0.10115098  0.53877183  0.46335674  1
  H  H14  1  0.86339661  0.48310047  0.58092082  1
  H  H15  1  0.79771867  0.52728665  0.61822678  1
  H  H16  1  0.92492891  0.65735495  0.56907138  1
  H  H17  1  0.99088240  0.61281924  0.53227023  1
  H  H18  1  0.36523945  0.48184077  0.33018423  1
  H  H19  1  0.42300975  0.52502394  0.37354088  1
  H  H20  1  0.41203633  0.37627750  0.52830287  1
  H  H21  1  0.35468039  0.33294392  0.48481697  1
  H  H22  1  0.46740329  0.55517531  0.40386015  1
  H  H23  1  0.53021313  0.59698636  0.44561132  1
  H  H24  1  0.51743516  0.44942711  0.60120487  1
  H  H25  1  0.45459213  0.40764635  0.55942572  1
  H  H26  1  0.57544367  0.62696752  0.47551672  1
  H  H27  1  0.64275337  0.66731530  0.51563489  1
  H  H28  1  0.63399681  0.51874297  0.67062535  1
  H  H29  1  0.56616583  0.47862373  0.63058847  1
  H  H30  1  0.30988843  0.15316692  0.36552756  1
  H  H31  1  0.37642107  0.07213743  0.40328900  1
  H  H32  1  0.47980252  0.13803520  0.48503303  1
  H  H33  1  0.41292919  0.21886951  0.44762447  1
  H  H34  1  0.42203844  0.01243643  0.43282663  1
  H  H35  1  0.48466088  0.92875635  0.47469721  1
  H  H36  1  0.59017628  0.99511216  0.55475797  1
  H  H37  1  0.52754496  0.07880520  0.51284390  1
  H  H38  1  0.52948242  0.86861259  0.50486358  1
  H  H39  1  0.58822502  0.78275908  0.55045180  1
  H  H40  1  0.69150326  0.84679526  0.63390572  1
  H  H41  1  0.63311291  0.93288826  0.58784102  1
  H  H42  1  0.81132992  0.84585946  0.51803098  1
  H  H43  1  0.87040840  0.93157666  0.47836019  1
  H  H44  1  0.96777470  0.86946340  0.62890259  1
  H  H45  1  0.90900883  0.78353053  0.66841588  1
  H  H46  1  0.91502839  0.99190489  0.44867865  1
  H  H47  1  0.97779360  0.07549518  0.40680112  1
  H  H48  1  0.07381182  0.01511363  0.55779827  1
  H  H49  1  0.01099925  0.93153457  0.59966383  1
  H  H50  1  0.02294286  0.13543286  0.37666624  1
  H  H51  1  0.08895606  0.21671408  0.33289395  1
  H  H52  1  0.18822334  0.15520203  0.48231770  1
  H  H53  1  0.12176937  0.07418001  0.52623561  1
  H  H54  1  0.21159177  0.40015596  0.13975778  1
  H  H55  1  0.14674472  0.43705761  0.05766918  1
  H  H56  1  0.00111908  0.44900328  0.15012957  1
  H  H57  1  0.06615393  0.41252156  0.23211915  1
  H  H58  1  0.10133244  0.46644712  0.99783983  1
  H  H59  1  0.03868648  0.50834682  0.91417545  1
  H  H60  1  0.89177675  0.51830717  0.00655944  1
  H  H61  1  0.95444879  0.47637300  0.09022598  1
  H  H62  1  0.99380110  0.53856635  0.85407247  1
  H  H63  1  0.93342433  0.58500650  0.76924753  1
  H  H64  1  0.78743435  0.59887017  0.86014037  1
  H  H65  1  0.84766196  0.55189983  0.94507710  1
  H  H66  1  0.28758795  0.45843542  0.13924159  1
  H  H67  1  0.35231708  0.50371552  0.05707878  1
  H  H68  1  0.49953330  0.40265315  0.15054010  1
  H  H69  1  0.43462691  0.35704430  0.23261051  1
  H  H70  1  0.39771438  0.53416894  0.99724002  1
  H  H71  1  0.46036229  0.57593045  0.91357685  1
  H  H72  1  0.60880508  0.47696896  0.00692558  1
  H  H73  1  0.54613016  0.43523960  0.09059030  1
  H  H74  1  0.50525248  0.60580850  0.85347690  1
  H  H75  1  0.56574393  0.64410028  0.76872414  1
  H  H76  1  0.71335676  0.54266330  0.86063820  1
  H  H77  1  0.65300100  0.50479811  0.94549429  1
  C  C78  1  0.32011776  0.23980881  0.38014651  1
  C  C79  1  0.32011776  0.38004468  0.38014433  1
  C  C80  1  0.32011776  0.38004651  0.23990916  1
  C  C81  1  0.17988224  0.23980881  0.38014651  1
  C  C82  1  0.17988224  0.38004468  0.38014433  1
  C  C83  1  0.17988224  0.38004651  0.23990917  1
  C  C84  1  0.82011776  0.76012496  0.61998597  1
  C  C85  1  0.82011776  0.61988908  0.61998815  1
  C  C86  1  0.82011776  0.61988726  0.76022332  1
  C  C87  1  0.67988224  0.76012496  0.61998597  1
  C  C88  1  0.67988224  0.61988908  0.61998815  1
  C  C89  1  0.67988224  0.61988726  0.76022332  1
  C  C90  1  0.14386598  0.40405566  0.40415525  1
  C  C91  1  0.09011531  0.37800559  0.43189367  1
  C  C92  1  0.05597499  0.40048075  0.45851663  1
  C  C93  1  0.07568965  0.44896440  0.45747205  1
  C  C94  1  0.13002860  0.47449037  0.43059258  1
  C  C95  1  0.16404591  0.45211897  0.40376974  1
  C  C96  1  0.04060035  0.47217135  0.48281850  1
  C  C97  1  0.98555073  0.44726595  0.50840775  1
  C  C98  1  0.94953958  0.47123120  0.53243171  1
  C  C99  1  0.96860414  0.52015915  0.53077075  1
  C  C100  1  0.02411371  0.54460571  0.50594910  1
  C  C101  1  0.06016149  0.52058240  0.48196946  1
  C  C102  1  0.93173682  0.54494642  0.55337689  1
  C  C103  1  0.87644612  0.52016799  0.57839230  1
  C  C104  1  0.83869166  0.54556025  0.59981397  1
  C  C105  1  0.85613402  0.59587810  0.59597723  1
  C  C106  1  0.91181989  0.62032412  0.57156234  1
  C  C107  1  0.94972986  0.59475059  0.55040162  1
  C  C108  1  0.35613402  0.40405567  0.40415525  1
  C  C109  1  0.37530190  0.45935527  0.37229288  1
  C  C110  1  0.40844226  0.48418266  0.39719249  1
  C  C111  1  0.42229657  0.45370145  0.45400146  1
  C  C112  1  0.40219330  0.39869424  0.48612456  1
  C  C113  1  0.36924948  0.37379765  0.46115180  1
  C  C114  1  0.45685560  0.47815577  0.47843403  1
  C  C115  1  0.47813592  0.53268648  0.44582445  1
  C  C116  1  0.51411868  0.55671851  0.46979949  1
  C  C117  1  0.52885575  0.52613430  0.52639305  1
  C  C118  1  0.50679460  0.47189957  0.55921720  1
  C  C119  1  0.47074064  0.44789079  0.53522692  1
  C  C120  1  0.56627078  0.54963318  0.54994315  1
  C  C121  1  0.58793068  0.60396504  0.51699845  1
  C  C122  1  0.62662359  0.62714978  0.54003746  1
  C  C123  1  0.64386598  0.59587810  0.59597723  1
  C  C124  1  0.62158420  0.54174710  0.62913173  1
  C  C125  1  0.58261165  0.51867311  0.60613973  1
  C  C126  1  0.35613313  0.19178852  0.40415640  1
  C  C127  1  0.34594749  0.14989202  0.39103678  1
  C  C128  1  0.38418162  0.10336833  0.41268375  1
  C  C129  1  0.43267984  0.09882678  0.44737178  1
  C  C130  1  0.44356809  0.14120024  0.45970623  1
  C  C131  1  0.40515907  0.18763271  0.43822328  1
  C  C132  1  0.46980260  0.05155214  0.47016720  1
  C  C133  1  0.45777020  0.00868193  0.45882842  1
  C  C134  1  0.49376258  0.96068091  0.48279717  1
  C  C135  1  0.54173934  0.95557471  0.51816642  1
  C  C136  1  0.55438566  0.99881147  0.52882919  1
  C  C137  1  0.51840420  0.04685613  0.50479277  1
  C  C138  1  0.57657293  0.90690236  0.54336468  1
  C  C139  1  0.56392519  0.86394045  0.53232606  1
  C  C140  1  0.59765968  0.81459852  0.55853100  1
  C  C141  1  0.64386687  0.80814524  0.59597608  1
  C  C142  1  0.65703046  0.85141196  0.60649804  1
  C  C143  1  0.62348198  0.90088897  0.58004278  1
  C  C144  1  0.85613313  0.80814524  0.59597608  1
  C  C145  1  0.84468751  0.85083362  0.54156854  1
  C  C146  1  0.87857966  0.90008785  0.51878717  1
  C  C147  1  0.92384441  0.90666334  0.55049352  1
  C  C148  1  0.93457971  0.86438657  0.60527454  1
  C  C149  1  0.90082968  0.81502419  0.62797575  1
  C  C150  1  0.95876433  0.95532329  0.52707760  1
  C  C151  1  0.94887053  0.99684809  0.47183747  1
  C  C152  1  0.98483761  0.04486502  0.44781791  1
  C  C153  1  0.03074990  0.05127002  0.47907681  1
  C  C154  1  0.04003800  0.01014564  0.53459590  1
  C  C155  1  0.00399983  0.96213665  0.55863100  1
  C  C156  1  0.06781085  0.09854164  0.45452857  1
  C  C157  1  0.05811282  0.13964806  0.39910558  1
  C  C158  1  0.09605146  0.18634611  0.37394070  1
  C  C159  1  0.14386687  0.19178853  0.40415640  1
  C  C160  1  0.15310872  0.15098858  0.45983653  1
  C  C161  1  0.11493783  0.10441848  0.48508796  1
  C  C162  1  0.14386542  0.40405750  0.19188675  1
  C  C163  1  0.16686826  0.41065395  0.14193114  1
  C  C164  1  0.12962010  0.43180666  0.09478792  1
  C  C165  1  0.06931735  0.44625496  0.09766915  1
  C  C166  1  0.04594056  0.43872511  0.14789502  1
  C  C167  1  0.08329146  0.41777218  0.19499239  1
  C  C168  1  0.03270339  0.46881286  0.05007506  1
  C  C169  1  0.05677027  0.47755910  0.99963797  1
  C  C170  1  0.02079224  0.50153792  0.95162844  1
  C  C171  1  0.96075895  0.51682165  0.95410349  1
  C  C172  1  0.93636961  0.50728377  0.00472384  1
  C  C173  1  0.97236107  0.48323702  0.05276169  1
  C  C174  1  0.92540743  0.54225316  0.90575736  1
  C  C175  1  0.94992318  0.55141983  0.85533326  1
  C  C176  1  0.91524561  0.57812034  0.80658492  1
  C  C177  1  0.85613458  0.59587627  0.80824574  1
  C  C178  1  0.83132467  0.58608396  0.85883523  1
  C  C179  1  0.86592133  0.55910162  0.90765256  1
  C  C180  1  0.35613458  0.40405750  0.19188675  1
  C  C181  1  0.33262731  0.44649307  0.14161371  1
  C  C182  1  0.36980661  0.47253754  0.09442717  1
  C  C183  1  0.43054284  0.45618802  0.09758117  1
  C  C184  1  0.45440135  0.41443268  0.14811018  1
  C  C185  1  0.41712434  0.38823032  0.19525405  1
  C  C186  1  0.46712155  0.48125073  0.04996490  1
  C  C187  1  0.44260456  0.52197628  0.99924457  1
  C  C188  1  0.47858187  0.54600625  0.95123458  1
  C  C189  1  0.53906666  0.52921184  0.95399374  1
  C  C190  1  0.56388620  0.48910886  0.00488481  1
  C  C191  1  0.52789394  0.46511908  0.05292217  1
  C  C192  1  0.57445399  0.55209908  0.90567015  1
  C  C193  1  0.54950031  0.59237972  0.85497048  1
  C  C194  1  0.58424413  0.61437363  0.80626382  1
  C  C195  1  0.64386542  0.59587627  0.80824573  1
  C  C196  1  0.66909781  0.55606796  0.85910109  1
  C  C197  1  0.63442787  0.53429136  0.90787231  1
  O  O198  1  0.30179204  0.25604556  0.40846413  1
  O  O199  1  0.30179204  0.40836221  0.33559032  1
  O  O200  1  0.30179204  0.33548845  0.25615311  1
  O  O201  1  0.30179204  0.25604415  0.33559269  1
  O  O202  1  0.30179204  0.40836157  0.25615198  1
  O  O203  1  0.30179204  0.33549050  0.40846290  1
  O  O204  1  0.19820796  0.25604556  0.40846413  1
  O  O205  1  0.19820796  0.40836221  0.33559032  1
  O  O206  1  0.19820796  0.33548845  0.25615311  1
  O  O207  1  0.19820796  0.25604415  0.33559269  1
  O  O208  1  0.19820796  0.40836157  0.25615198  1
  O  O209  1  0.19820796  0.33549050  0.40846290  1
  O  O210  1  0.25000413  0.33333333  0.33336759  1
  O  O211  1  0.80179204  0.74388821  0.59166835  1
  O  O212  1  0.80179204  0.59157156  0.66454216  1
  O  O213  1  0.80179204  0.66444532  0.74397937  1
  O  O214  1  0.80179204  0.74388961  0.66453979  1
  O  O215  1  0.80179204  0.59157220  0.74398051  1
  O  O216  1  0.80179204  0.66444327  0.59166958  1
  O  O217  1  0.69820796  0.74388821  0.59166835  1
  O  O218  1  0.69820796  0.59157156  0.66454216  1
  O  O219  1  0.69820796  0.66444532  0.74397937  1
  O  O220  1  0.69820796  0.74388961  0.66453979  1
  O  O221  1  0.69820796  0.59157220  0.74398051  1
  O  O222  1  0.69820796  0.66444327  0.59166958  1
  O  O223  1  0.75000413  0.66663032  0.66670301  1
