# generated using pymatgen
data_Al3H12C24O13
_symmetry_space_group_name_H-M   'P 1'
_cell_length_a   13.76381855
_cell_length_b   17.35627697
_cell_length_c   17.35650301
_cell_angle_alpha   60.00043018
_cell_angle_beta   89.99999901
_cell_angle_gamma   89.99999889
_symmetry_Int_Tables_number   1
_chemical_formula_structural   Al3H12C24O13
_chemical_formula_sum   'Al6 H24 C48 O26'
_cell_volume   3590.79203461
_cell_formula_units_Z   2
loop_
 _symmetry_equiv_pos_site_id
 _symmetry_equiv_pos_as_xyz
  1  'x, y, z'
loop_
 _atom_site_type_symbol
 _atom_site_label
 _atom_site_symmetry_multiplicity
 _atom_site_fract_x
 _atom_site_fract_y
 _atom_site_fract_z
 _atom_site_occupancy
  Al  Al0  1  0.24999273  0.27559719  0.44879524  1
  Al  Al1  1  0.24999274  0.27559550  0.27570103  1
  Al  Al2  1  0.24999273  0.44869579  0.27570373  1
  Al  Al3  1  0.74999272  0.72433714  0.55133611  1
  Al  Al4  1  0.74999272  0.72433883  0.72443032  1
  Al  Al5  1  0.74999272  0.55123854  0.72442763  1
  H  H6  1  0.96298822  0.53438838  0.33422148  1
  H  H7  1  0.14724046  0.39205938  0.59242341  1
  H  H8  1  0.03701177  0.46554596  0.66590988  1
  H  H9  1  0.85275952  0.60787495  0.40770794  1
  H  H10  1  0.42173880  0.54099117  0.61640553  1
  H  H11  1  0.68848913  0.53243111  0.45721139  1
  H  H12  1  0.57826119  0.45894316  0.38372582  1
  H  H13  1  0.31151086  0.46750322  0.54291997  1
  H  H14  1  0.58256509  0.16003598  0.43844581  1
  H  H15  1  0.30720874  0.98687298  0.48819876  1
  H  H16  1  0.41743490  0.83989835  0.56168554  1
  H  H17  1  0.69279125  0.01306135  0.51193259  1
  H  H18  1  0.18250742  0.99334037  0.44987616  1
  H  H19  1  0.92772355  0.15356555  0.47676862  1
  H  H20  1  0.81749256  0.00659396  0.55025519  1
  H  H21  1  0.07227643  0.84636878  0.52336273  1
  H  H22  1  0.04000767  0.32554199  0.08304950  1
  H  H23  1  0.07022034  0.60090248  0.06405340  1
  H  H24  1  0.95999232  0.67439234  0.91708185  1
  H  H25  1  0.92977965  0.39903185  0.93607795  1
  H  H26  1  0.54208292  0.52825833  0.13467583  1
  H  H27  1  0.34769055  0.39818982  0.01242802  1
  H  H28  1  0.45791707  0.47167600  0.86545552  1
  H  H29  1  0.65230944  0.60174451  0.98770333  1
  C  C30  1  0.12668393  0.41551011  0.41561294  1
  C  C31  1  0.12668393  0.16888080  0.41560910  1
  C  C32  1  0.12668393  0.41550910  0.16897797  1
  C  C33  1  0.37331607  0.41551011  0.41561294  1
  C  C34  1  0.37331607  0.16888079  0.41560910  1
  C  C35  1  0.37331607  0.41550910  0.16897797  1
  C  C36  1  0.62668392  0.58442422  0.58451842  1
  C  C37  1  0.62668392  0.83105354  0.58452226  1
  C  C38  1  0.62668392  0.58442524  0.83115339  1
  C  C39  1  0.87331606  0.58442422  0.58451842  1
  C  C40  1  0.87331606  0.83105354  0.58452225  1
  C  C41  1  0.87331606  0.58442523  0.83115339  1
  C  C42  1  0.97873203  0.51974652  0.40476714  1
  C  C43  1  0.06334305  0.45773791  0.45783858  1
  C  C44  1  0.08461101  0.43795856  0.55313711  1
  C  C45  1  0.02126795  0.48018781  0.59536421  1
  C  C46  1  0.93665693  0.54219642  0.54229277  1
  C  C47  1  0.91538897  0.56197578  0.44699424  1
  C  C48  1  0.45502901  0.52354066  0.56691768  1
  C  C49  1  0.56334305  0.54219642  0.54229277  1
  C  C50  1  0.60831403  0.51862293  0.47544077  1
  C  C51  1  0.54497098  0.47639367  0.43321367  1
  C  C52  1  0.43665694  0.45773791  0.45783858  1
  C  C53  1  0.39168595  0.48131140  0.52469058  1
  C  C54  1  0.54744411  0.09194701  0.46465725  1
  C  C55  1  0.43665791  0.08442414  0.45783731  1
  C  C56  1  0.38921379  0.99244430  0.49324574  1
  C  C57  1  0.45255587  0.90798732  0.53547411  1
  C  C58  1  0.56334207  0.91551019  0.54229405  1
  C  C59  1  0.61078619  0.00749004  0.50688562  1
  C  C60  1  0.10487367  0.99615923  0.47122543  1
  C  C61  1  0.06334208  0.08442413  0.45783731  1
  C  C62  1  0.95846841  0.08823207  0.48667755  1
  C  C63  1  0.89512632  0.00377510  0.52890592  1
  C  C64  1  0.93665791  0.91551020  0.54229404  1
  C  C65  1  0.04153158  0.91170226  0.51345380  1
  C  C66  1  0.02298948  0.39973777  0.04775041  1
  C  C67  1  0.06334186  0.45773820  0.08452168  1
  C  C68  1  0.04035238  0.55796759  0.03683695  1
  C  C69  1  0.97701051  0.60019656  0.95238094  1
  C  C70  1  0.93665813  0.54219613  0.91560967  1
  C  C71  1  0.95964761  0.44196674  0.96329441  1
  C  C72  1  0.52418197  0.51622403  0.07741629  1
  C  C73  1  0.43665813  0.45773820  0.08452169  1
  C  C74  1  0.41247615  0.44148134  0.00717107  1
  C  C75  1  0.47581801  0.48371030  0.92271506  1
  C  C76  1  0.56334185  0.54219613  0.91560967  1
  C  C77  1  0.58752384  0.55845300  0.99296028  1
  O  O78  1  0.15891336  0.33715230  0.46541506  1
  O  O79  1  0.15891336  0.19743581  0.33725211  1
  O  O80  1  0.15891336  0.46530524  0.19754614  1
  O  O81  1  0.15891336  0.46531375  0.33725628  1
  O  O82  1  0.15891336  0.33714511  0.19754414  1
  O  O83  1  0.15891336  0.19743449  0.46541288  1
  O  O84  1  0.34108664  0.33715230  0.46541506  1
  O  O85  1  0.34108664  0.19743580  0.33725211  1
  O  O86  1  0.34108664  0.46530524  0.19754614  1
  O  O87  1  0.34108664  0.46531375  0.33725628  1
  O  O88  1  0.34108664  0.33714511  0.19754414  1
  O  O89  1  0.34108664  0.19743448  0.46541288  1
  O  O90  1  0.24999273  0.33333333  0.33333333  1
  O  O91  1  0.65891335  0.66278203  0.53471630  1
  O  O92  1  0.65891334  0.80249853  0.66287924  1
  O  O93  1  0.65891335  0.53462909  0.80258521  1
  O  O94  1  0.65891335  0.53462058  0.66287507  1
  O  O95  1  0.65891334  0.66278922  0.80258721  1
  O  O96  1  0.65891335  0.80249985  0.53471847  1
  O  O97  1  0.84108663  0.66278203  0.53471630  1
  O  O98  1  0.84108663  0.80249853  0.66287924  1
  O  O99  1  0.84108663  0.53462909  0.80258521  1
  O  O100  1  0.84108663  0.53462058  0.66287507  1
  O  O101  1  0.84108663  0.66278922  0.80258721  1
  O  O102  1  0.84108663  0.80249985  0.53471847  1
  O  O103  1  0.74999272  0.66666667  0.66666667  1
