# generated using pymatgen
data_Al3H36C60O13
_symmetry_space_group_name_H-M   'P 1'
_cell_length_a   24.20642092
_cell_length_b   30.52452358
_cell_length_c   30.52485015
_cell_angle_alpha   60.00035373
_cell_angle_beta   89.99999977
_cell_angle_gamma   89.99999980
_symmetry_Int_Tables_number   1
_chemical_formula_structural   Al3H36C60O13
_chemical_formula_sum   'Al6 H72 C120 O26'
_cell_volume   19532.83113159
_cell_formula_units_Z   2
loop_
 _symmetry_equiv_pos_site_id
 _symmetry_equiv_pos_as_xyz
  1  'x, y, z'
loop_
 _atom_site_type_symbol
 _atom_site_label
 _atom_site_symmetry_multiplicity
 _atom_site_fract_x
 _atom_site_fract_y
 _atom_site_fract_z
 _atom_site_occupancy
  Al  Al0  1  0.24999587  0.30049002  0.39901406  1
  Al  Al1  1  0.24999587  0.30048921  0.30059220  1
  Al  Al2  1  0.24999587  0.39891422  0.30059373  1
  Al  Al3  1  0.74999587  0.69944375  0.60111842  1
  Al  Al4  1  0.74999587  0.69944456  0.69954028  1
  Al  Al5  1  0.74999587  0.60101954  0.69953875  1
  H  H6  1  0.12230794  0.47631663  0.32787677  1
  H  H7  1  0.05503688  0.51528653  0.36947196  1
  H  H8  1  0.08691806  0.37581352  0.52810981  1
  H  H9  1  0.15461081  0.33706402  0.48654035  1
  H  H10  1  0.00938553  0.54488035  0.39955777  1
  H  H11  1  0.94675196  0.58677001  0.44134119  1
  H  H12  1  0.97595867  0.44649770  0.59998038  1
  H  H13  1  0.03857082  0.40461411  0.55815887  1
  H  H14  1  0.90193240  0.61693375  0.47132246  1
  H  H15  1  0.84388307  0.66138905  0.51315667  1
  H  H16  1  0.87611123  0.52322726  0.67249822  1
  H  H17  1  0.93365555  0.47854533  0.63055506  1
  H  H18  1  0.28983301  0.46265121  0.39679397  1
  H  H19  1  0.35066851  0.50062014  0.44343725  1
  H  H20  1  0.49175621  0.38805036  0.46639722  1
  H  H21  1  0.43108440  0.35039288  0.41932048  1
  H  H22  1  0.39554378  0.53009325  0.47413183  1
  H  H23  1  0.45826747  0.57199692  0.51584456  1
  H  H24  1  0.59876693  0.45812037  0.54136514  1
  H  H25  1  0.53599670  0.41621219  0.49966763  1
  H  H26  1  0.50332998  0.60219845  0.54563525  1
  H  H27  1  0.56762104  0.64762458  0.58257341  1
  H  H28  1  0.71015140  0.53664437  0.60483326  1
  H  H29  1  0.64558339  0.49086999  0.56839954  1
  H  H30  1  0.62377361  0.80504942  0.67208664  1
  H  H31  1  0.56596830  0.89156724  0.62939393  1
  H  H32  1  0.59889533  0.91138872  0.47063530  1
  H  H33  1  0.65629199  0.82459483  0.51339852  1
  H  H34  1  0.52158056  0.95204152  0.59916134  1
  H  H35  1  0.45876731  0.03560160  0.55739829  1
  H  H36  1  0.49345089  0.05741164  0.39812478  1
  H  H37  1  0.55629287  0.97385108  0.43992011  1
  H  H38  1  0.41353338  0.09548603  0.52746472  1
  H  H39  1  0.34625346  0.17597069  0.48669986  1
  H  H40  1  0.37698036  0.19620526  0.32753273  1
  H  H41  1  0.44476583  0.11602054  0.36828942  1
  H  H42  1  0.79909763  0.85355272  0.62047911  1
  H  H43  1  0.86499469  0.93498195  0.58320066  1
  H  H44  1  0.98968703  0.85568268  0.52990655  1
  H  H45  1  0.92350757  0.77441197  0.56679311  1
  H  H46  1  0.91053721  0.99473004  0.55374074  1
  H  H47  1  0.97316736  0.07840526  0.51185518  1
  H  H48  1  0.09966552  0.99885433  0.46042979  1
  H  H49  1  0.03701895  0.91517087  0.50235587  1
  H  H50  1  0.01801166  0.13853472  0.48166089  1
  H  H51  1  0.07736909  0.22400153  0.43559503  1
  H  H52  1  0.20213627  0.14645187  0.38047037  1
  H  H53  1  0.14305158  0.06079556  0.42704882  1
  H  H54  1  0.10540997  0.46550720  0.20653106  1
  H  H55  1  0.04731800  0.51034929  0.12019447  1
  H  H56  1  0.11684135  0.39495913  0.07735668  1
  H  H57  1  0.17455423  0.34982508  0.16395074  1
  H  H58  1  0.00290962  0.54073787  0.05973382  1
  H  H59  1  0.94009526  0.58251116  0.97617534  1
  H  H60  1  0.01118812  0.46903704  0.93146664  1
  H  H61  1  0.07402255  0.42729637  0.01503106  1
  H  H62  1  0.89486585  0.61241217  0.91628870  1
  H  H63  1  0.82785871  0.65113546  0.83563333  1
  H  H64  1  0.89527134  0.53548403  0.79232621  1
  H  H65  1  0.96273339  0.49714828  0.87271350  1
  H  H66  1  0.43817955  0.36687456  0.23394207  1
  H  H67  1  0.49942686  0.40457687  0.14958970  1
  H  H68  1  0.34407267  0.48340133  0.05277770  1
  H  H69  1  0.28291732  0.44605679  0.13720698  1
  H  H70  1  0.54421526  0.43410555  0.08936802  1
  H  H71  1  0.60698564  0.47597837  0.00578187  1
  H  H72  1  0.45166311  0.55309582  0.90810586  1
  H  H73  1  0.38890619  0.51117975  0.99171902  1
  H  H74  1  0.65209615  0.50614841  0.94582047  1
  H  H75  1  0.71604319  0.55179598  0.86324077  1
  H  H76  1  0.56192192  0.63234543  0.76540745  1
  H  H77  1  0.49790393  0.58621661  0.84796051  1
  C  C78  1  0.17988224  0.38004468  0.38014651  1
  C  C79  1  0.17988224  0.23981099  0.38014433  1
  C  C80  1  0.17988224  0.38004433  0.23990917  1
  C  C81  1  0.32011776  0.38004468  0.38014651  1
  C  C82  1  0.32011776  0.23981099  0.38014433  1
  C  C83  1  0.32011776  0.38004433  0.23990917  1
  C  C84  1  0.67988224  0.61988908  0.61998597  1
  C  C85  1  0.67988224  0.76012277  0.61998815  1
  C  C86  1  0.67988224  0.61988944  0.76022331  1
  C  C87  1  0.82011776  0.61988908  0.61998597  1
  C  C88  1  0.82011776  0.76012277  0.61998815  1
  C  C89  1  0.82011776  0.61988944  0.76022331  1
  C  C90  1  0.14386687  0.40405507  0.40415640  1
  C  C91  1  0.11488052  0.45500003  0.37047386  1
  C  C92  1  0.07620336  0.47737201  0.39434693  1
  C  C93  1  0.06644258  0.44870663  0.45191467  1
  C  C94  1  0.09455743  0.39725270  0.48552303  1
  C  C95  1  0.13344243  0.37499085  0.46165176  1
  C  C96  1  0.02906893  0.47191287  0.47582528  1
  C  C97  1  0.00231116  0.52401422  0.44220017  1
  C  C98  1  0.96629051  0.54802969  0.46616793  1
  C  C99  1  0.95712884  0.51991854  0.52379494  1
  C  C100  1  0.98310269  0.46741919  0.55734460  1
  C  C101  1  0.01908621  0.44337891  0.53334151  1
  C  C102  1  0.92256209  0.54468091  0.54787274  1
  C  C103  1  0.89644744  0.59703699  0.51410208  1
  C  C104  1  0.86310802  0.62259631  0.53813314  1
  C  C105  1  0.85613313  0.59587869  0.59597608  1
  C  C106  1  0.88162951  0.54317345  0.62972668  1
  C  C107  1  0.91470857  0.51748538  0.60564252  1
  C  C108  1  0.35613313  0.40405507  0.40415640  1
  C  C109  1  0.33282600  0.44686641  0.41149319  1
  C  C110  1  0.36773759  0.46865270  0.43832001  1
  C  C111  1  0.42592629  0.44751970  0.45790058  1
  C  C112  1  0.44884712  0.40400376  0.45147622  1
  C  C113  1  0.41400343  0.38237048  0.42443493  1
  C  C114  1  0.46135525  0.47042346  0.48333662  1
  C  C115  1  0.43881293  0.51485678  0.48838281  1
  C  C116  1  0.47477795  0.53886360  0.51239421  1
  C  C117  1  0.53332677  0.51843402  0.53128163  1
  C  C118  1  0.55553556  0.47342890  0.52703651  1
  C  C119  1  0.51951314  0.44938257  0.50306393  1
  C  C120  1  0.56987709  0.54350492  0.55380350  1
  C  C121  1  0.54732299  0.58829115  0.55820891  1
  C  C122  1  0.58426400  0.61441067  0.57941486  1
  C  C123  1  0.64386687  0.59587869  0.59597608  1
  C  C124  1  0.66619200  0.55061151  0.59221518  1
  C  C125  1  0.62910708  0.52430037  0.57127325  1
  C  C126  1  0.64386598  0.80814468  0.59597723  1
  C  C127  1  0.61837436  0.82760513  0.62925449  1
  C  C128  1  0.58521152  0.87731799  0.60474206  1
  C  C129  1  0.57766155  0.90761035  0.54691808  1
  C  C130  1  0.60407725  0.88869591  0.51350690  1
  C  C131  1  0.63704529  0.83884179  0.53806420  1
  C  C132  1  0.54308690  0.95648740  0.52268281  1
  C  C133  1  0.51550611  0.97444638  0.55640305  1
  C  C134  1  0.47951906  0.02245075  0.53243113  1
  C  C135  1  0.47108565  0.05242428  0.47471971  1
  C  C136  1  0.49943359  0.03496726  0.44089516  1
  C  C137  1  0.53548852  0.98696880  0.46489024  1
  C  C138  1  0.43368855  0.09948452  0.45096968  1
  C  C139  1  0.40572348  0.11690657  0.48495455  1
  C  C140  1  0.36704686  0.16314055  0.46154179  1
  C  C141  1  0.35613402  0.19178909  0.40415525  1
  C  C142  1  0.38471541  0.17477421  0.37004735  1
  C  C143  1  0.42366439  0.12869340  0.39345146  1
  C  C144  1  0.85613402  0.80814468  0.59597723  1
  C  C145  1  0.83956861  0.85405317  0.60111375  1
  C  C146  1  0.87743045  0.90081101  0.57974547  1
  C  C147  1  0.93192702  0.90158047  0.55333387  1
  C  C148  1  0.94907000  0.85527366  0.54906820  1
  C  C149  1  0.91106053  0.80858990  0.57025223  1
  C  C150  1  0.96885659  0.94897661  0.53067430  1
  C  C151  1  0.95074127  0.99567210  0.53381887  1
  C  C152  1  0.98672714  0.04367722  0.50984616  1
  C  C153  1  0.04079573  0.04495253  0.48266965  1
  C  C154  1  0.05941314  0.99796082  0.48027003  1
  C  C155  1  0.02342830  0.94991829  0.50431200  1
  C  C156  1  0.07582632  0.09350098  0.45733616  1
  C  C157  1  0.05715634  0.14025001  0.46011711  1
  C  C158  1  0.09124542  0.18936893  0.43363478  1
  C  C159  1  0.14386598  0.19178909  0.40415525  1
  C  C160  1  0.16296799  0.14478796  0.40195274  1
  C  C161  1  0.12902400  0.09555970  0.42870573  1
  C  C162  1  0.14386542  0.40405575  0.19188675  1
  C  C163  1  0.10774066  0.45043357  0.17911401  1
  C  C164  1  0.07440734  0.47622422  0.12950891  1
  C  C165  1  0.07732057  0.45566730  0.09263626  1
  C  C166  1  0.11430718  0.40988953  0.10490212  1
  C  C167  1  0.14745831  0.38395948  0.15464055  1
  C  C168  1  0.04265241  0.48060415  0.04381854  1
  C  C169  1  0.00458153  0.52546734  0.03245729  1
  C  C170  1  0.96858667  0.54949891  0.98445834  1
  C  C171  1  0.97065111  0.52856985  0.94788273  1
  C  C172  1  0.00942886  0.48426248  0.95877994  1
  C  C173  1  0.04548355  0.46026814  0.00677803  1
  C  C174  1  0.93335240  0.55158387  0.90076110  1
  C  C175  1  0.89491422  0.59605531  0.88992609  1
  C  C176  1  0.85639374  0.61829934  0.84359439  1
  C  C177  1  0.85613458  0.59587801  0.80824573  1
  C  C178  1  0.89515002  0.55182231  0.81869815  1
  C  C179  1  0.93391783  0.52977437  0.86489242  1
  C  C180  1  0.35613458  0.40405575  0.19188675  1
  C  C181  1  0.41819319  0.39175148  0.19542236  1
  C  C182  1  0.45337286  0.41336427  0.14697833  1
  C  C183  1  0.42642098  0.44720108  0.09498911  1
  C  C184  1  0.36411742  0.45870948  0.09133456  1
  C  C185  1  0.32898474  0.43726321  0.13982690  1
  C  C186  1  0.46204286  0.46997987  0.04677113  1
  C  C187  1  0.52457960  0.45948269  0.05079509  1
  C  C188  1  0.56060193  0.48345210  0.00281342  1
  C  C189  1  0.53402882  0.51798030  0.95082567  1
  C  C190  1  0.47133346  0.52779274  0.94668243  1
  C  C191  1  0.43529779  0.50375538  0.99469249  1
  C  C192  1  0.57035464  0.54319574  0.90309225  1
  C  C193  1  0.63294953  0.53300633  0.90744804  1
  C  C194  1  0.66970431  0.55924570  0.86000599  1
  C  C195  1  0.64386542  0.59587801  0.80824573  1
  C  C196  1  0.58110872  0.60554311  0.80376859  1
  C  C197  1  0.54430507  0.57905075  0.85119801  1
  O  O198  1  0.19820796  0.33549031  0.40846414  1
  O  O199  1  0.19820796  0.25604747  0.33559032  1
  O  O200  1  0.19820796  0.40835844  0.25615311  1
  O  O201  1  0.19820796  0.40836316  0.33559269  1
  O  O202  1  0.19820796  0.33548645  0.25615197  1
  O  O203  1  0.19820796  0.25604661  0.40846290  1
  O  O204  1  0.30179204  0.33549031  0.40846414  1
  O  O205  1  0.30179204  0.25604747  0.33559032  1
  O  O206  1  0.30179204  0.40835844  0.25615311  1
  O  O207  1  0.30179204  0.40836316  0.33559269  1
  O  O208  1  0.30179204  0.33548645  0.25615197  1
  O  O209  1  0.30179204  0.25604661  0.40846290  1
  O  O210  1  0.24999587  0.33333333  0.33333333  1
  O  O211  1  0.69820796  0.66444346  0.59166834  1
  O  O212  1  0.69820796  0.74388629  0.66454216  1
  O  O213  1  0.69820796  0.59157532  0.74397937  1
  O  O214  1  0.69820796  0.59157061  0.66453979  1
  O  O215  1  0.69820796  0.66444731  0.74398051  1
  O  O216  1  0.69820796  0.74388716  0.59166958  1
  O  O217  1  0.80179204  0.66444346  0.59166834  1
  O  O218  1  0.80179204  0.74388629  0.66454216  1
  O  O219  1  0.80179204  0.59157532  0.74397937  1
  O  O220  1  0.80179204  0.59157061  0.66453979  1
  O  O221  1  0.80179204  0.66444731  0.74398051  1
  O  O222  1  0.80179204  0.74388716  0.59166958  1
  O  O223  1  0.74999587  0.66666667  0.66666667  1
