# generated using pymatgen
data_Al3H36C60O13
_symmetry_space_group_name_H-M   'P 1'
_cell_length_a   24.20642115
_cell_length_b   30.52452357
_cell_length_c   30.52484996
_cell_angle_alpha   60.00035333
_cell_angle_beta   90.00000293
_cell_angle_gamma   90.00000704
_symmetry_Int_Tables_number   1
_chemical_formula_structural   Al3H36C60O13
_chemical_formula_sum   'Al6 H72 C120 O26'
_cell_volume   19532.83110893
_cell_formula_units_Z   2
loop_
 _symmetry_equiv_pos_site_id
 _symmetry_equiv_pos_as_xyz
  1  'x, y, z'
loop_
 _atom_site_type_symbol
 _atom_site_label
 _atom_site_symmetry_multiplicity
 _atom_site_fract_x
 _atom_site_fract_y
 _atom_site_fract_z
 _atom_site_occupancy
  Al  Al0  1  0.24999587  0.30049002  0.39901406  1
  Al  Al1  1  0.24999587  0.30048921  0.30059220  1
  Al  Al2  1  0.24999587  0.39891422  0.30059373  1
  Al  Al3  1  0.74999587  0.69944374  0.60111842  1
  Al  Al4  1  0.74999587  0.69944455  0.69954028  1
  Al  Al5  1  0.74999587  0.60101954  0.69953875  1
  H  H6  1  0.79226524  0.60847659  0.53367453  1
  H  H7  1  0.85757211  0.57145782  0.48889302  1
  H  H8  1  0.99567588  0.54207486  0.60600824  1
  H  H9  1  0.93014001  0.57868180  0.65107666  1
  H  H10  1  0.90304252  0.54204375  0.45851367  1
  H  H11  1  0.96568178  0.50014844  0.41673949  1
  H  H12  1  0.10529550  0.47272155  0.53196430  1
  H  H13  1  0.04263406  0.51465410  0.57370585  1
  H  H14  1  0.01054920  0.46993715  0.38683586  1
  H  H15  1  0.07048028  0.42361260  0.34805428  1
  H  H16  1  0.20882230  0.39233706  0.46541521  1
  H  H17  1  0.14909355  0.43918893  0.50381472  1
  H  H18  1  0.37030066  0.32891099  0.47992953  1
  H  H19  1  0.43768012  0.37004287  0.51929459  1
  H  H20  1  0.42062357  0.52621522  0.37296653  1
  H  H21  1  0.35281467  0.48514950  0.33378630  1
  H  H22  1  0.48335301  0.40006619  0.54893735  1
  H  H23  1  0.54598177  0.44185975  0.59081990  1
  H  H24  1  0.53162911  0.59781963  0.44388785  1
  H  H25  1  0.46901946  0.55598599  0.40201481  1
  H  H26  1  0.59079326  0.47186251  0.62096723  1
  H  H27  1  0.64873393  0.51415074  0.66503684  1
  H  H28  1  0.63130615  0.67115091  0.51991111  1
  H  H29  1  0.57387398  0.62870550  0.47566093  1
  H  H30  1  0.66803397  0.83288322  0.65427802  1
  H  H31  1  0.60978455  0.91912172  0.60913543  1
  H  H32  1  0.55402660  0.88317230  0.48495535  1
  H  H33  1  0.61189569  0.79667555  0.53038755  1
  H  H34  1  0.56529525  0.97953212  0.57859248  1
  H  H35  1  0.50250694  0.06310788  0.53686955  1
  H  H36  1  0.44842523  0.02909651  0.41097756  1
  H  H37  1  0.51125720  0.94552965  0.45271299  1
  H  H38  1  0.45731235  0.12301705  0.50703549  1
  H  H39  1  0.39048314  0.20378517  0.46865294  1
  H  H40  1  0.33261504  0.16830544  0.34473523  1
  H  H41  1  0.39995081  0.08783789  0.38282901  1
  H  H42  1  0.21753083  0.13592473  0.44029778  1
  H  H43  1  0.15404169  0.05298134  0.48635799  1
  H  H44  1  0.99711287  0.15255158  0.42208482  1
  H  H45  1  0.06066929  0.23547173  0.37563190  1
  H  H46  1  0.10880505  0.99304091  0.51693345  1
  H  H47  1  0.04613513  0.90939068  0.55867401  1
  H  H48  1  0.88857451  0.00847435  0.49681376  1
  H  H49  1  0.95127993  0.09212080  0.45510232  1
  H  H50  1  0.00119264  0.84932297  0.58851019  1
  H  H51  1  0.93949336  0.76532876  0.62603528  1
  H  H52  1  0.78183091  0.86356365  0.56119001  1
  H  H53  1  0.84353228  0.94757455  0.52415466  1
  H  H54  1  0.06007288  0.37957317  0.23504113  1
  H  H55  1  0.99762043  0.42603255  0.15144667  1
  H  H56  1  0.15596237  0.48314672  0.05275566  1
  H  H57  1  0.21842896  0.43627416  0.13636030  1
  H  H58  1  0.95267267  0.45671922  0.09132521  1
  H  H59  1  0.88992463  0.49842967  0.00772501  1
  H  H60  1  0.04766626  0.55796891  0.90852762  1
  H  H61  1  0.11039384  0.51626604  0.99215923  1
  H  H62  1  0.84486622  0.52822118  0.94773085  1
  H  H63  1  0.78209386  0.56533301  0.86441239  1
  H  H64  1  0.93952822  0.62180808  0.76449545  1
  H  H65  1  0.00224116  0.58516233  0.84786927  1
  H  H66  1  0.43791076  0.36581320  0.23377304  1
  H  H67  1  0.49908634  0.40355898  0.14937556  1
  H  H68  1  0.34423945  0.48452390  0.05288258  1
  H  H69  1  0.28316218  0.44713232  0.13736097  1
  H  H70  1  0.54386541  0.43309448  0.08914802  1
  H  H71  1  0.60663706  0.47496608  0.00556266  1
  H  H72  1  0.45178750  0.55424125  0.90818408  1
  H  H73  1  0.38902883  0.51232623  0.99179615  1
  H  H74  1  0.65175060  0.50513373  0.94560317  1
  H  H75  1  0.71576749  0.55073848  0.86306739  1
  H  H76  1  0.56217299  0.63341740  0.76556533  1
  H  H77  1  0.49807720  0.58733487  0.84806948  1
  C  C78  1  0.17988225  0.38004468  0.38014651  1
  C  C79  1  0.17988224  0.23981099  0.38014433  1
  C  C80  1  0.17988224  0.38004432  0.23990916  1
  C  C81  1  0.32011776  0.38004469  0.38014651  1
  C  C82  1  0.32011775  0.23981099  0.38014433  1
  C  C83  1  0.32011776  0.38004433  0.23990916  1
  C  C84  1  0.67988224  0.61988907  0.61998597  1
  C  C85  1  0.67988225  0.76012277  0.61998815  1
  C  C86  1  0.67988224  0.61988943  0.76022332  1
  C  C87  1  0.82011775  0.61988908  0.61998597  1
  C  C88  1  0.82011777  0.76012277  0.61998815  1
  C  C89  1  0.82011776  0.61988944  0.76022332  1
  C  C90  1  0.85613314  0.59587868  0.59597607  1
  C  C91  1  0.83547646  0.59424705  0.54912667  1
  C  C92  1  0.87299320  0.57302777  0.52337115  1
  C  C93  1  0.93122634  0.55354273  0.54443627  1
  C  C94  1  0.95234568  0.55608946  0.59069665  1
  C  C95  1  0.91470659  0.57711369  0.61658903  1
  C  C96  1  0.96797827  0.53095409  0.51951709  1
  C  C97  1  0.94604556  0.52721983  0.47415551  1
  C  C98  1  0.98202701  0.50324330  0.45012415  1
  C  C99  1  0.03992089  0.48294590  0.47155154  1
  C  C100  1  0.06225404  0.48745909  0.51636651  1
  C  C101  1  0.02626527  0.51150458  0.54036107  1
  C  C102  1  0.07513288  0.45754257  0.44852048  1
  C  C103  1  0.05270440  0.45340722  0.40354347  1
  C  C104  1  0.08712459  0.42677430  0.38126566  1
  C  C105  1  0.14386686  0.40405508  0.40415641  1
  C  C106  1  0.16664975  0.40880171  0.44872542  1
  C  C107  1  0.13233814  0.43571414  0.47081011  1
  C  C108  1  0.35613313  0.40405507  0.40415640  1
  C  C109  1  0.38090219  0.37089527  0.45723011  1
  C  C110  1  0.41964110  0.39449865  0.47983296  1
  C  C111  1  0.43368566  0.45126417  0.44927649  1
  C  C112  1  0.40980551  0.48426225  0.39577040  1
  C  C113  1  0.37085432  0.46068038  0.37326076  1
  C  C114  1  0.47108781  0.47503861  0.47260099  1
  C  C115  1  0.49358376  0.44214717  0.52664816  1
  C  C116  1  0.52960199  0.46611426  0.55066585  1
  C  C117  1  0.54302630  0.52301243  0.52060352  1
  C  C118  1  0.52132667  0.55575321  0.46622574  1
  C  C119  1  0.48534480  0.53174598  0.44218856  1
  C  C120  1  0.57756567  0.54722870  0.54524463  1
  C  C121  1  0.59940100  0.51424303  0.59950621  1
  C  C122  1  0.63267696  0.53853672  0.62484282  1
  C  C123  1  0.64386688  0.59587869  0.59597608  1
  C  C124  1  0.62266328  0.62878387  0.54141730  1
  C  C125  1  0.58965020  0.60441155  0.51597590  1
  C  C126  1  0.64386597  0.80814469  0.59597722  1
  C  C127  1  0.64368529  0.84352229  0.61833394  1
  C  C128  1  0.61027217  0.89307772  0.59239099  1
  C  C129  1  0.57713667  0.90728023  0.54401359  1
  C  C130  1  0.57817604  0.87240752  0.52105080  1
  C  C131  1  0.61141226  0.82272207  0.54714321  1
  C  C132  1  0.54245202  0.95608810  0.51904553  1
  C  C133  1  0.54035530  0.99007312  0.54297437  1
  C  C134  1  0.50438349  0.03808707  0.51898720  1
  C  C135  1  0.47045900  0.05203014  0.47109628  1
  C  C136  1  0.47328219  0.01852149  0.44664907  1
  C  C137  1  0.50932875  0.97051777  0.47062757  1
  C  C138  1  0.43316458  0.09915496  0.44809074  1
  C  C139  1  0.43076608  0.13265493  0.47253663  1
  C  C140  1  0.39235384  0.17905520  0.45049986  1
  C  C141  1  0.35613403  0.19178907  0.40415526  1
  C  C142  1  0.35909492  0.15866236  0.37926522  1
  C  C143  1  0.39777599  0.11241305  0.40114702  1
  C  C144  1  0.14386599  0.19178910  0.40415524  1
  C  C145  1  0.17066198  0.13944739  0.43632992  1
  C  C146  1  0.13420598  0.09180553  0.46282534  1
  C  C147  1  0.07092769  0.09655820  0.45720977  1
  C  C148  1  0.04401783  0.14900663  0.42585538  1
  C  C149  1  0.08051867  0.19663906  0.39916932  1
  C  C150  1  0.03471793  0.04870943  0.48249452  1
  C  C151  1  0.06195461  0.99627823  0.51261582  1
  C  C152  1  0.02598340  0.94826389  0.53664199  1
  C  C153  1  0.96276506  0.95274212  0.53044915  1
  C  C154  1  0.93543263  0.00521403  0.50106484  1
  C  C155  1  0.97143386  0.05324626  0.47708263  1
  C  C156  1  0.92700335  0.90465342  0.55311619  1
  C  C157  1  0.95454591  0.85232512  0.58269379  1
  C  C158  1  0.91910414  0.80405680  0.60424284  1
  C  C159  1  0.85613401  0.80814466  0.59597724  1
  C  C160  1  0.82847496  0.86052664  0.56697197  1
  C  C161  1  0.86391503  0.90881413  0.54567522  1
  C  C162  1  0.14386542  0.40405575  0.19188675  1
  C  C163  1  0.08046489  0.40150246  0.19626630  1
  C  C164  1  0.04458286  0.42821890  0.14826398  1
  C  C165  1  0.07215050  0.45758135  0.09588751  1
  C  C166  1  0.13556670  0.46100480  0.09153322  1
  C  C167  1  0.17145304  0.43408212  0.13955158  1
  C  C168  1  0.03617152  0.48295495  0.04789411  1
  C  C169  1  0.97284364  0.47820656  0.05241562  1
  C  C170  1  0.93681646  0.50221116  0.00443699  1
  C  C171  1  0.96419322  0.53089975  0.95194383  1
  C  C172  1  0.02748111  0.53640661  0.94742796  1
  C  C173  1  0.06350784  0.51243424  0.99544363  1
  C  C174  1  0.92822885  0.55348872  0.90398310  1
  C  C175  1  0.86497242  0.54810635  0.90875494  1
  C  C176  1  0.82889672  0.56941126  0.86088581  1
  C  C177  1  0.85613458  0.59587801  0.80824573  1
  C  C178  1  0.91939549  0.60187929  0.80345149  1
  C  C179  1  0.95545149  0.58081975  0.85135112  1
  C  C180  1  0.35613458  0.40405576  0.19188675  1
  C  C181  1  0.41801863  0.39115372  0.19531258  1
  C  C182  1  0.45315646  0.41279163  0.14684224  1
  C  C183  1  0.42633594  0.44725257  0.09493564  1
  C  C184  1  0.36419323  0.45936652  0.09138224  1
  C  C185  1  0.32910545  0.43789330  0.13990281  1
  C  C186  1  0.46193650  0.47004370  0.04670424  1
  C  C187  1  0.52433156  0.45892964  0.05063911  1
  C  C188  1  0.56035354  0.48289880  0.00265721  1
  C  C189  1  0.53392289  0.51804371  0.95075905  1
  C  C190  1  0.47135726  0.52847939  0.94669740  1
  C  C191  1  0.43532107  0.50444248  0.99470713  1
  C  C192  1  0.57027033  0.54324689  0.90303923  1
  C  C193  1  0.63273114  0.53243505  0.90731071  1
  C  C194  1  0.66952629  0.55864957  0.85989404  1
  C  C195  1  0.64386542  0.59587800  0.80824573  1
  C  C196  1  0.58123343  0.60617110  0.80384701  1
  C  C197  1  0.54438524  0.57970553  0.85124843  1
  O  O198  1  0.19820796  0.33549030  0.40846414  1
  O  O199  1  0.19820795  0.25604747  0.33559032  1
  O  O200  1  0.19820796  0.40835844  0.25615311  1
  O  O201  1  0.19820796  0.40836315  0.33559269  1
  O  O202  1  0.19820795  0.33548645  0.25615197  1
  O  O203  1  0.19820795  0.25604660  0.40846290  1
  O  O204  1  0.30179205  0.33549031  0.40846414  1
  O  O205  1  0.30179204  0.25604747  0.33559032  1
  O  O206  1  0.30179205  0.40835844  0.25615311  1
  O  O207  1  0.30179205  0.40836316  0.33559269  1
  O  O208  1  0.30179204  0.33548646  0.25615197  1
  O  O209  1  0.30179204  0.25604661  0.40846290  1
  O  O210  1  0.24999587  0.33333333  0.33333333  1
  O  O211  1  0.69820796  0.66444345  0.59166834  1
  O  O212  1  0.69820796  0.74388629  0.66454216  1
  O  O213  1  0.69820795  0.59157532  0.74397937  1
  O  O214  1  0.69820795  0.59157060  0.66453979  1
  O  O215  1  0.69820796  0.66444730  0.74398051  1
  O  O216  1  0.69820796  0.74388715  0.59166958  1
  O  O217  1  0.80179204  0.66444346  0.59166834  1
  O  O218  1  0.80179205  0.74388629  0.66454216  1
  O  O219  1  0.80179204  0.59157532  0.74397937  1
  O  O220  1  0.80179204  0.59157061  0.66453979  1
  O  O221  1  0.80179205  0.66444731  0.74398051  1
  O  O222  1  0.80179205  0.74388716  0.59166958  1
  O  O223  1  0.74999587  0.66666667  0.66666667  1
