# generated using pymatgen
data_Zn4H12C24O13
_symmetry_space_group_name_H-M   'P 1'
_cell_length_a   15.80875544
_cell_length_b   16.91425782
_cell_length_c   16.91412728
_cell_angle_alpha   119.99974117
_cell_angle_beta   89.99913985
_cell_angle_gamma   90.00001732
_symmetry_Int_Tables_number   1
_chemical_formula_structural   Zn4H12C24O13
_chemical_formula_sum   'Zn8 H24 C48 O26'
_cell_volume   3916.80531691
_cell_formula_units_Z   2
loop_
 _symmetry_equiv_pos_site_id
 _symmetry_equiv_pos_as_xyz
  1  'x, y, z'
loop_
 _atom_site_type_symbol
 _atom_site_label
 _atom_site_symmetry_multiplicity
 _atom_site_fract_x
 _atom_site_fract_y
 _atom_site_fract_z
 _atom_site_occupancy
  Zn  Zn0  1  0.29094723  0.55845346  0.33340023  1
  Zn  Zn1  1  0.29094824  0.66666667  0.22511900  1
  Zn  Zn2  1  0.12715824  0.66670048  0.33336714  1
  Zn  Zn3  1  0.29094628  0.77494622  0.44161289  1
  Zn  Zn4  1  0.62715805  0.33333333  0.66666667  1
  Zn  Zn5  1  0.79094805  0.33333333  0.55845183  1
  Zn  Zn6  1  0.79094609  0.44161170  0.77494503  1
  Zn  Zn7  1  0.79094704  0.22511894  0.66673188  1
  H  H8  1  0.83553359  0.96858620  0.45724170  1
  H  H9  1  0.06907762  0.15987058  0.53785615  1
  H  H10  1  0.16446622  0.03147929  0.54288995  1
  H  H11  1  0.93092220  0.84019490  0.46227550  1
  H  H12  1  0.52841517  0.82314264  0.44215312  1
  H  H13  1  0.37619951  0.04852834  0.42455449  1
  H  H14  1  0.47158464  0.17692284  0.55797852  1
  H  H15  1  0.62380030  0.95153714  0.57557715  1
  H  H16  1  0.49178173  0.52176942  0.35379669  1
  H  H17  1  0.41283028  0.61171962  0.65136435  1
  H  H18  1  0.50821808  0.47829606  0.64633496  1
  H  H19  1  0.58716953  0.38834586  0.34876730  1
  H  H20  1  0.86549226  0.61109318  0.56266490  1
  H  H21  1  0.03911641  0.39400434  0.57089181  1
  H  H22  1  0.13450755  0.38897230  0.43746675  1
  H  H23  1  0.96088340  0.60606114  0.42923983  1
  H  H24  1  0.16866579  0.49437329  0.98206173  1
  H  H25  1  0.92672367  0.63911436  0.14646035  1
  H  H26  1  0.83133402  0.50569219  0.01806992  1
  H  H27  1  0.07327614  0.36095112  0.85367130  1
  H  H28  1  0.42309662  0.34452717  0.96476631  1
  H  H29  1  0.48151451  0.65050467  0.16375902  1
  H  H30  1  0.57690320  0.65553832  0.03536533  1
  H  H31  1  0.51848530  0.34956082  0.83637262  1
  C  C32  1  0.38084870  0.49374858  0.16041525  1
  C  C33  1  0.11915443  0.66670051  0.16044835  1
  C  C34  1  0.11915282  0.49374959  0.33340194  1
  C  C35  1  0.11915130  0.83965142  0.50631808  1
  C  C36  1  0.38084718  0.83965041  0.33339806  1
  C  C37  1  0.38084557  0.66666667  0.50631883  1
  C  C38  1  0.61915425  0.33333333  0.49374733  1
  C  C39  1  0.88084699  0.50631589  0.66672970  1
  C  C40  1  0.61915111  0.50631690  0.83968449  1
  C  C41  1  0.88084538  0.33333333  0.83965166  1
  C  C42  1  0.88084851  0.16041407  0.49374740  1
  C  C43  1  0.61915263  0.16041507  0.66673358  1
  C  C44  1  0.90549314  0.98196271  0.47545793  1
  C  C45  1  0.94518678  0.07381284  0.49717361  1
  C  C46  1  0.03969354  0.09188287  0.52178150  1
  C  C47  1  0.09450667  0.01810277  0.52467371  1
  C  C48  1  0.05481303  0.92625264  0.50295804  1
  C  C49  1  0.96030627  0.90818261  0.47835014  1
  C  C50  1  0.51632808  0.89838694  0.46678763  1
  C  C51  1  0.44518676  0.92625298  0.42339461  1
  C  C52  1  0.42885858  0.02789878  0.45667280  1
  C  C53  1  0.48367173  0.10167855  0.53334402  1
  C  C54  1  0.55481305  0.07381251  0.57673704  1
  C  C55  1  0.57114123  0.97216670  0.54345884  1
  C  C56  1  0.49527752  0.51252322  0.41601565  1
  C  C57  1  0.44518561  0.57670406  0.50295748  1
  C  C58  1  0.44990799  0.56421358  0.58700765  1
  C  C59  1  0.50472229  0.48754226  0.58411600  1
  C  C60  1  0.55481420  0.42336142  0.49717417  1
  C  C61  1  0.55009182  0.43585190  0.41312399  1
  C  C62  1  0.92270820  0.56385105  0.53603693  1
  C  C63  1  0.94518501  0.50292323  0.57673758  1
  C  C64  1  0.02247671  0.43910492  0.54076647  1
  C  C65  1  0.07729161  0.43621443  0.46409471  1
  C  C66  1  0.05481480  0.49714225  0.42339406  1
  C  C67  1  0.97752310  0.56096056  0.45936517  1
  C  C68  1  0.09691985  0.49678067  0.98972019  1
  C  C69  1  0.05481359  0.57670355  0.07384528  1
  C  C70  1  0.95789364  0.57995562  0.08419092  1
  C  C71  1  0.90307996  0.50328481  0.01041146  1
  C  C72  1  0.94518622  0.42336193  0.92628636  1
  C  C73  1  0.04210617  0.42010986  0.91594072  1
  C  C74  1  0.45580921  0.41067506  0.97978177  1
  C  C75  1  0.44518582  0.49714179  0.07384734  1
  C  C76  1  0.48937651  0.58649947  0.09413138  1
  C  C77  1  0.54419060  0.58939042  0.02034987  1
  C  C78  1  0.55481399  0.50292369  0.92628431  1
  C  C79  1  0.51062330  0.41356601  0.90600026  1
  O  O80  1  0.25000000  0.66666667  0.33333333  1
  O  O81  1  0.35943951  0.48226945  0.22852205  1
  O  O82  1  0.20074958  0.66670020  0.14896837  1
  O  O83  1  0.08037492  0.56182370  0.33340190  1
  O  O84  1  0.35944025  0.56182263  0.14896764  1
  O  O85  1  0.20074786  0.48227006  0.33340135  1
  O  O86  1  0.08037590  0.66670066  0.22852332  1
  O  O87  1  0.20074624  0.85113031  0.51779698  1
  O  O88  1  0.35943933  0.77157654  0.25384459  1
  O  O89  1  0.08037400  0.77157761  0.43824428  1
  O  O90  1  0.35943789  0.85112970  0.41295216  1
  O  O91  1  0.35943691  0.74625274  0.51783074  1
  O  O92  1  0.35943761  0.58714640  0.43827757  1
  O  O93  1  0.74999981  0.33333333  0.66666667  1
  O  O94  1  0.58037571  0.33333333  0.56182215  1
  O  O95  1  0.85943914  0.43824202  0.58717624  1
  O  O96  1  0.70074605  0.51779580  0.85116311  1
  O  O97  1  0.70074939  0.33333333  0.48226766  1
  O  O98  1  0.58037381  0.43824309  0.77161049  1
  O  O99  1  0.85943770  0.51779519  0.74628381  1
  O  O100  1  0.85943742  0.25381188  0.77160922  1
  O  O101  1  0.85944006  0.22848811  0.48229929  1
  O  O102  1  0.85943672  0.41291823  0.85116239  1
  O  O103  1  0.85943932  0.14893493  0.56185369  1
  O  O104  1  0.70074767  0.14893554  0.66673299  1
  O  O105  1  0.58037473  0.22848918  0.66673354  1
