# generated using pymatgen
data_Al3H36C60O13
_symmetry_space_group_name_H-M   'P 1'
_cell_length_a   24.20642088
_cell_length_b   30.52452360
_cell_length_c   30.52485081
_cell_angle_alpha   60.00035391
_cell_angle_beta   89.99999920
_cell_angle_gamma   89.99999921
_symmetry_Int_Tables_number   1
_chemical_formula_structural   Al3H36C60O13
_chemical_formula_sum   'Al6 H72 C120 O26'
_cell_volume   19532.83156614
_cell_formula_units_Z   2
loop_
 _symmetry_equiv_pos_site_id
 _symmetry_equiv_pos_as_xyz
  1  'x, y, z'
loop_
 _atom_site_type_symbol
 _atom_site_label
 _atom_site_symmetry_multiplicity
 _atom_site_fract_x
 _atom_site_fract_y
 _atom_site_fract_z
 _atom_site_occupancy
  Al  Al0  1  0.24999587  0.30049002  0.39901406  1
  Al  Al1  1  0.24999587  0.30048921  0.30059220  1
  Al  Al2  1  0.24999587  0.39891422  0.30059374  1
  Al  Al3  1  0.74999587  0.69944374  0.60111842  1
  Al  Al4  1  0.74999587  0.69944455  0.69954028  1
  Al  Al5  1  0.74999587  0.60101954  0.69953875  1
  H  H6  1  0.89742422  0.67151648  0.53676642  1
  H  H7  1  0.96417195  0.62862410  0.49876457  1
  H  H8  1  0.89261650  0.47072465  0.61254702  1
  H  H9  1  0.82548823  0.51370513  0.65024053  1
  H  H10  1  0.00973455  0.59836508  0.46928815  1
  H  H11  1  0.07238546  0.55660530  0.42738575  1
  H  H12  1  0.00331652  0.39809639  0.54245742  1
  H  H13  1  0.94069199  0.43988722  0.58436390  1
  H  H14  1  0.11723683  0.52668000  0.39718604  1
  H  H15  1  0.17580438  0.48610898  0.35179347  1
  H  H16  1  0.10402957  0.32785496  0.46399586  1
  H  H17  1  0.04593280  0.36839604  0.50973241  1
  H  H18  1  0.43994449  0.38484648  0.38019758  1
  H  H19  1  0.50206144  0.43138953  0.41746094  1
  H  H20  1  0.34354068  0.47799347  0.46966301  1
  H  H21  1  0.28143907  0.43102867  0.43279269  1
  H  H22  1  0.54696472  0.46208252  0.44691803  1
  H  H23  1  0.60971981  0.50379364  0.48880357  1
  H  H24  1  0.45164221  0.55287682  0.53913165  1
  H  H25  1  0.38890583  0.51117577  0.49720572  1
  H  H26  1  0.65479343  0.53358406  0.51899838  1
  H  H27  1  0.71789427  0.57061697  0.56507819  1
  H  H28  1  0.56037150  0.61655588  0.61911436  1
  H  H29  1  0.49729428  0.58000369  0.57252100  1
  H  H30  1  0.39145359  0.20446027  0.32770831  1
  H  H31  1  0.45839850  0.12369007  0.37019843  1
  H  H32  1  0.39886604  0.08713725  0.52954680  1
  H  H33  1  0.33152470  0.16767721  0.48700401  1
  H  H34  1  0.50399292  0.06397463  0.40040428  1
  H  H35  1  0.56663744  0.98030844  0.44217107  1
  H  H36  1  0.50966670  0.94448268  0.60193860  1
  H  H37  1  0.44704726  0.02818320  0.56013833  1
  H  H38  1  0.61147719  0.92017612  0.47211338  1
  H  H39  1  0.66984930  0.83408961  0.51307569  1
  H  H40  1  0.61004831  0.79557122  0.67288728  1
  H  H41  1  0.55216152  0.88198093  0.63191117  1
  H  H42  1  0.16514210  0.16886913  0.34390817  1
  H  H43  1  0.10697151  0.08258106  0.38890983  1
  H  H44  1  0.05702897  0.11487339  0.51692226  1
  H  H45  1  0.11481301  0.20142363  0.47164381  1
  H  H46  1  0.06249550  0.02216229  0.41943581  1
  H  H47  1  0.99970461  0.93858815  0.46116070  1
  H  H48  1  0.95146686  0.96892448  0.59081353  1
  H  H49  1  0.01430069  0.05249017  0.54907464  1
  H  H50  1  0.95450526  0.87868197  0.49100008  1
  H  H51  1  0.88759802  0.79796291  0.52951931  1
  H  H52  1  0.83552605  0.82979768  0.65730857  1
  H  H53  1  0.90294510  0.91021287  0.61906097  1
  H  H54  1  0.09501579  0.45658035  0.21306747  1
  H  H55  1  0.03660983  0.50196102  0.12692833  1
  H  H56  1  0.12678432  0.40464640  0.07110403  1
  H  H57  1  0.18484120  0.35892869  0.15748175  1
  H  H58  1  0.99216942  0.53243008  0.06648783  1
  H  H59  1  0.92935717  0.57418977  0.98292801  1
  H  H60  1  0.02092441  0.47901738  0.92534397  1
  H  H61  1  0.08375101  0.43728965  0.00891330  1
  H  H62  1  0.88413689  0.60406315  0.92303565  1
  H  H63  1  0.81743185  0.64225761  0.84219029  1
  H  H64  1  0.90558700  0.54454279  0.78583919  1
  H  H65  1  0.97270212  0.50678352  0.86644465  1
  H  H66  1  0.29881624  0.47371017  0.14630303  1
  H  H67  1  0.36469241  0.51788554  0.06486159  1
  H  H68  1  0.48993982  0.38581338  0.14450679  1
  H  H69  1  0.42378312  0.34140254  0.22579089  1
  H  H70  1  0.41023226  0.54817722  0.00511247  1
  H  H71  1  0.47286246  0.58996627  0.92143817  1
  H  H72  1  0.59990522  0.45952195  0.00132849  1
  H  H73  1  0.53725839  0.41776522  0.08501088  1
  H  H74  1  0.51770736  0.61990022  0.86130974  1
  H  H75  1  0.57708456  0.65927701  0.77585622  1
  H  H76  1  0.70241254  0.52711745  0.85375543  1
  H  H77  1  0.64330558  0.48806610  0.93939687  1
  C  C78  1  0.17988224  0.38004468  0.38014651  1
  C  C79  1  0.17988224  0.23981099  0.38014432  1
  C  C80  1  0.17988224  0.38004433  0.23990917  1
  C  C81  1  0.32011776  0.38004468  0.38014651  1
  C  C82  1  0.32011776  0.23981099  0.38014432  1
  C  C83  1  0.32011776  0.38004432  0.23990917  1
  C  C84  1  0.67988224  0.61988907  0.61998598  1
  C  C85  1  0.67988224  0.76012277  0.61998816  1
  C  C86  1  0.67988224  0.61988943  0.76022332  1
  C  C87  1  0.82011776  0.61988907  0.61998598  1
  C  C88  1  0.82011776  0.76012277  0.61998816  1
  C  C89  1  0.82011776  0.61988943  0.76022332  1
  C  C90  1  0.85613313  0.59587869  0.59597608  1
  C  C91  1  0.89631246  0.62882899  0.55280292  1
  C  C92  1  0.93468852  0.60420016  0.53099732  1
  C  C93  1  0.93293780  0.54658287  0.55247238  1
  C  C94  1  0.89353913  0.51346065  0.59634349  1
  C  C95  1  0.85497705  0.53814283  0.61799752  1
  C  C96  1  0.97016625  0.52228825  0.52955883  1
  C  C97  1  0.00834255  0.55577275  0.48477949  1
  C  C98  1  0.04436887  0.53179975  0.46077281  1
  C  C99  1  0.04211213  0.47432598  0.48154940  1
  C  C100  1  0.00464833  0.44070419  0.52689457  1
  C  C101  1  0.96865861  0.46469802  0.55094022  1
  C  C102  1  0.07682190  0.45063565  0.45648952  1
  C  C103  1  0.11442721  0.48440607  0.41136045  1
  C  C104  1  0.14806797  0.46110536  0.38526029  1
  C  C105  1  0.14386687  0.40405507  0.40415640  1
  C  C106  1  0.10681336  0.37013559  0.44976195  1
  C  C107  1  0.07341311  0.39341622  0.47605155  1
  C  C108  1  0.35613313  0.40405507  0.40415640  1
  C  C109  1  0.41945046  0.40455605  0.39932775  1
  C  C110  1  0.45513704  0.43132222  0.42068736  1
  C  C111  1  0.42745035  0.45768001  0.44678191  1
  C  C112  1  0.36405362  0.45806725  0.45073718  1
  C  C113  1  0.32837702  0.43109117  0.42956244  1
  C  C114  1  0.46333033  0.48308096  0.46943714  1
  C  C115  1  0.52672830  0.48134531  0.46660673  1
  C  C116  1  0.56275468  0.50535237  0.49057932  1
  C  C117  1  0.53531155  0.53102619  0.51744138  1
  C  C118  1  0.47189855  0.53353779  0.51952484  1
  C  C119  1  0.43586890  0.50956529  0.49548298  1
  C  C120  1  0.57137675  0.55358682  0.54277857  1
  C  C121  1  0.63473981  0.55121221  0.54031379  1
  C  C122  1  0.67100544  0.57247193  0.56680423  1
  C  C123  1  0.64386687  0.59587868  0.59597608  1
  C  C124  1  0.58045550  0.59888356  0.59786056  1
  C  C125  1  0.54419069  0.57787645  0.57109890  1
  C  C126  1  0.35613402  0.19178908  0.40415525  1
  C  C127  1  0.39293692  0.17944195  0.37062727  1
  C  C128  1  0.43142671  0.13307906  0.39502162  1
  C  C129  1  0.43317221  0.09913645  0.45297426  1
  C  C130  1  0.39718490  0.11203158  0.48659760  1
  C  C131  1  0.35850082  0.15829105  0.46216700  1
  C  C132  1  0.47045597  0.05196306  0.47714948  1
  C  C133  1  0.50516970  0.03848978  0.44327113  1
  C  C134  1  0.54119422  0.99050897  0.46724222  1
  C  C135  1  0.54239939  0.95598983  0.52511386  1
  C  C136  1  0.50842619  0.96990929  0.55906310  1
  C  C137  1  0.47243887  0.01795026  0.53506653  1
  C  C138  1  0.57705395  0.90720488  0.54892468  1
  C  C139  1  0.61117060  0.89365138  0.51480346  1
  C  C140  1  0.64469784  0.84417910  0.53833036  1
  C  C141  1  0.64386598  0.80814467  0.59597723  1
  C  C142  1  0.61032635  0.82204146  0.63019503  1
  C  C143  1  0.57704783  0.87168825  0.60666523  1
  C  C144  1  0.14386598  0.19178908  0.40415525  1
  C  C145  1  0.14204549  0.15744269  0.38064057  1
  C  C146  1  0.10867773  0.10785872  0.40650105  1
  C  C147  1  0.07723001  0.09259484  0.45595177  1
  C  C148  1  0.07992291  0.12642771  0.48004498  1
  C  C149  1  0.11311046  0.17614376  0.45404107  1
  C  C150  1  0.04256727  0.04377318  0.48087723  1
  C  C151  1  0.03879671  0.01084077  0.45585600  1
  C  C152  1  0.00282409  0.96282733  0.47984195  1
  C  C153  1  0.97057339  0.94783168  0.52882717  1
  C  C154  1  0.97508122  0.98028092  0.55434229  1
  C  C155  1  0.01112871  0.02828406  0.53036294  1
  C  C156  1  0.93325737  0.90072044  0.55187617  1
  C  C157  1  0.92917423  0.86827987  0.52635169  1
  C  C158  1  0.89071662  0.82190813  0.54846733  1
  C  C159  1  0.85613402  0.80814467  0.59597723  1
  C  C160  1  0.86078958  0.84020569  0.62192730  1
  C  C161  1  0.89951904  0.88642456  0.59995777  1
  C  C162  1  0.14386541  0.40405576  0.19188674  1
  C  C163  1  0.10167940  0.44545442  0.18292564  1
  C  C164  1  0.06816121  0.47155710  0.13343681  1
  C  C165  1  0.07694804  0.45630538  0.09287053  1
  C  C166  1  0.11993194  0.41560509  0.10136498  1
  C  C167  1  0.15328154  0.38934030  0.15097860  1
  C  C168  1  0.04218206  0.48139714  0.04411433  1
  C  C169  1  0.99820003  0.52104149  0.03647031  1
  C  C170  1  0.96220014  0.54507154  0.98847453  1
  C  C171  1  0.97018156  0.52935824  0.94817801  1
  C  C172  1  0.01481152  0.49035146  0.95539505  1
  C  C173  1  0.05086500  0.46636221  0.00339391  1
  C  C174  1  0.93298378  0.55221734  0.90099292  1
  C  C175  1  0.88866053  0.59140450  0.89385875  1
  C  C176  1  0.85031385  0.61334199  0.84741775  1
  C  C177  1  0.85613459  0.59587800  0.80824574  1
  C  C178  1  0.90099320  0.55717602  0.81502365  1
  C  C179  1  0.93956453  0.53546056  0.86134148  1
  C  C180  1  0.35613458  0.40405575  0.19188675  1
  C  C181  1  0.33940129  0.45496083  0.14587385  1
  C  C182  1  0.37725092  0.48036466  0.09910886  1
  C  C183  1  0.43190283  0.45487732  0.09843646  1
  C  C184  1  0.44920965  0.40444935  0.14484513  1
  C  C185  1  0.41121328  0.37893430  0.19153660  1
  C  C186  1  0.46882602  0.47962102  0.05103683  1
  C  C187  1  0.45055243  0.52931009  0.00424295  1
  C  C188  1  0.48653797  0.55334246  0.95623815  1
  C  C189  1  0.54076499  0.52759206  0.95506182  1
  C  C190  1  0.55953709  0.47835558  0.00214967  1
  C  C191  1  0.52355226  0.45435526  0.05019170  1
  C  C192  1  0.57580179  0.55079982  0.90651778  1
  C  C193  1  0.55697556  0.60017592  0.85967164  1
  C  C194  1  0.59107605  0.62279852  0.81056039  1
  C  C195  1  0.64386542  0.59587800  0.80824574  1
  C  C196  1  0.66312096  0.54683143  0.85534228  1
  C  C197  1  0.62916427  0.52437142  0.90456205  1
  O  O198  1  0.19820796  0.33549031  0.40846413  1
  O  O199  1  0.19820796  0.25604747  0.33559032  1
  O  O200  1  0.19820796  0.40835844  0.25615311  1
  O  O201  1  0.19820796  0.40836316  0.33559269  1
  O  O202  1  0.19820796  0.33548645  0.25615198  1
  O  O203  1  0.19820796  0.25604661  0.40846290  1
  O  O204  1  0.30179204  0.33549031  0.40846413  1
  O  O205  1  0.30179204  0.25604747  0.33559032  1
  O  O206  1  0.30179204  0.40835844  0.25615311  1
  O  O207  1  0.30179204  0.40836316  0.33559269  1
  O  O208  1  0.30179204  0.33548645  0.25615198  1
  O  O209  1  0.30179204  0.25604661  0.40846290  1
  O  O210  1  0.24999587  0.33333333  0.33333333  1
  O  O211  1  0.69820796  0.66444345  0.59166835  1
  O  O212  1  0.69820796  0.74388629  0.66454216  1
  O  O213  1  0.69820796  0.59157532  0.74397937  1
  O  O214  1  0.69820796  0.59157060  0.66453979  1
  O  O215  1  0.69820796  0.66444731  0.74398051  1
  O  O216  1  0.69820796  0.74388715  0.59166959  1
  O  O217  1  0.80179204  0.66444345  0.59166835  1
  O  O218  1  0.80179204  0.74388629  0.66454216  1
  O  O219  1  0.80179204  0.59157532  0.74397937  1
  O  O220  1  0.80179204  0.59157060  0.66453979  1
  O  O221  1  0.80179204  0.66444730  0.74398051  1
  O  O222  1  0.80179204  0.74388715  0.59166959  1
  O  O223  1  0.74999587  0.66666667  0.66666667  1
