# generated using pymatgen
data_Al3H36C60O13
_symmetry_space_group_name_H-M   'P 1'
_cell_length_a   24.20642109
_cell_length_b   30.52452366
_cell_length_c   30.52485015
_cell_angle_alpha   60.00035380
_cell_angle_beta   89.99999962
_cell_angle_gamma   89.99999996
_symmetry_Int_Tables_number   1
_chemical_formula_structural   Al3H36C60O13
_chemical_formula_sum   'Al6 H72 C120 O26'
_cell_volume   19532.83133862
_cell_formula_units_Z   2
loop_
 _symmetry_equiv_pos_site_id
 _symmetry_equiv_pos_as_xyz
  1  'x, y, z'
loop_
 _atom_site_type_symbol
 _atom_site_label
 _atom_site_symmetry_multiplicity
 _atom_site_fract_x
 _atom_site_fract_y
 _atom_site_fract_z
 _atom_site_occupancy
  Al  Al0  1  0.24999587  0.30049002  0.39901406  1
  Al  Al1  1  0.24999587  0.30048921  0.30059220  1
  Al  Al2  1  0.24999587  0.39891422  0.30059374  1
  Al  Al3  1  0.74999587  0.69944374  0.60111842  1
  Al  Al4  1  0.74999587  0.69944455  0.69954028  1
  Al  Al5  1  0.74999587  0.60101954  0.69953874  1
  H  H6  1  0.78796131  0.54072756  0.59871646  1
  H  H7  1  0.84906181  0.50293430  0.55206417  1
  H  H8  1  0.99400335  0.60868963  0.53834217  1
  H  H9  1  0.93304375  0.64615522  0.58542981  1
  H  H10  1  0.89397427  0.47348138  0.52137280  1
  H  H11  1  0.95669221  0.43157563  0.47965852  1
  H  H12  1  0.10116407  0.53872981  0.46335838  1
  H  H13  1  0.03840025  0.58064232  0.50505560  1
  H  H14  1  0.00174226  0.40136794  0.44986615  1
  H  H15  1  0.06577411  0.35577185  0.41293494  1
  H  H16  1  0.21208828  0.45988806  0.39991856  1
  H  H17  1  0.14780567  0.50585490  0.43633933  1
  H  H18  1  0.40611065  0.33073650  0.45558424  1
  H  H19  1  0.47249841  0.37423126  0.49321008  1
  H  H20  1  0.38342320  0.52774663  0.39482932  1
  H  H21  1  0.31668438  0.48411039  0.35754665  1
  H  H22  1  0.51800462  0.40456856  0.52264368  1
  H  H23  1  0.58066563  0.44631771  0.56455036  1
  H  H24  1  0.49393358  0.60073094  0.46468213  1
  H  H25  1  0.43130046  0.55895480  0.42276636  1
  H  H26  1  0.62553669  0.47621762  0.59476307  1
  H  H27  1  0.68445878  0.51620205  0.64051927  1
  H  H28  1  0.59525525  0.66990841  0.54382490  1
  H  H29  1  0.53677507  0.63002066  0.49767614  1
  H  H30  1  0.69439170  0.84945702  0.52114471  1
  H  H31  1  0.62807993  0.93062536  0.47753886  1
  H  H32  1  0.51623133  0.85940578  0.62020395  1
  H  H33  1  0.58286343  0.77841982  0.66399657  1
  H  H34  1  0.58248821  0.99034249  0.44732826  1
  H  H35  1  0.51986354  0.07402117  0.40552648  1
  H  H36  1  0.40599643  0.00241612  0.54681515  1
  H  H37  1  0.46863280  0.91872625  0.58858558  1
  H  H38  1  0.47503452  0.13416023  0.37556526  1
  H  H39  1  0.41607898  0.21987986  0.33563108  1
  H  H40  1  0.30427144  0.15048280  0.47823383  1
  H  H41  1  0.36290292  0.06454139  0.51789762  1
  H  H42  1  0.15444983  0.17559511  0.48677319  1
  H  H43  1  0.08702057  0.09512948  0.52758492  1
  H  H44  1  0.05456583  0.11642039  0.36817858  1
  H  H45  1  0.12242299  0.19663599  0.32742323  1
  H  H46  1  0.04131764  0.03548228  0.55741475  1
  H  H47  1  0.97869944  0.95179954  0.59927275  1
  H  H48  1  0.94358858  0.97387686  0.43995847  1
  H  H49  1  0.00619706  0.05758427  0.39812022  1
  H  H50  1  0.93390153  0.89164091  0.62936005  1
  H  H51  1  0.87602003  0.80524589  0.67202243  1
  H  H52  1  0.84393354  0.82450852  0.51342486  1
  H  H53  1  0.90132824  0.91122767  0.47074353  1
  H  H54  1  0.17523864  0.48621143  0.16261889  1
  H  H55  1  0.11675708  0.52682382  0.07652727  1
  H  H56  1  0.04649468  0.36825798  0.12159457  1
  H  H57  1  0.10461456  0.32771956  0.20793271  1
  H  H58  1  0.07223003  0.55662749  0.01614124  1
  H  H59  1  0.00944908  0.59848919  0.93256174  1
  H  H60  1  0.94077498  0.43992083  0.97574631  1
  H  H61  1  0.00360118  0.39807767  0.05931591  1
  H  H62  1  0.96426809  0.62858507  0.87264466  1
  H  H63  1  0.89766863  0.67144180  0.79173294  1
  H  H64  1  0.82535379  0.51373868  0.83629427  1
  H  H65  1  0.89244292  0.47084125  0.91691605  1
  H  H66  1  0.40650331  0.45509795  0.21402276  1
  H  H67  1  0.47287195  0.49270827  0.13289097  1
  H  H68  1  0.38300667  0.39509193  0.07726111  1
  H  H69  1  0.31628849  0.35782628  0.15819216  1
  H  H70  1  0.51837487  0.52214050  0.07311863  1
  H  H71  1  0.58103574  0.56404790  0.98946361  1
  H  H72  1  0.49350609  0.46493546  0.93441860  1
  H  H73  1  0.43087316  0.42301873  0.01810974  1
  H  H74  1  0.62590733  0.59426155  0.92935197  1
  H  H75  1  0.68484697  0.64003384  0.84362332  1
  H  H76  1  0.59485807  0.54410848  0.78611906  1
  H  H77  1  0.53635880  0.49794149  0.87214262  1
  C  C78  1  0.17988224  0.38004468  0.38014651  1
  C  C79  1  0.17988224  0.23981099  0.38014433  1
  C  C80  1  0.17988224  0.38004433  0.23990917  1
  C  C81  1  0.32011776  0.38004468  0.38014651  1
  C  C82  1  0.32011776  0.23981099  0.38014433  1
  C  C83  1  0.32011776  0.38004433  0.23990917  1
  C  C84  1  0.67988224  0.61988908  0.61998597  1
  C  C85  1  0.67988224  0.76012277  0.61998815  1
  C  C86  1  0.67988224  0.61988944  0.76022331  1
  C  C87  1  0.82011776  0.61988908  0.61998597  1
  C  C88  1  0.82011776  0.76012277  0.61998815  1
  C  C89  1  0.82011776  0.61988944  0.76022331  1
  C  C90  1  0.85613313  0.59587869  0.59597608  1
  C  C91  1  0.83182462  0.55509634  0.58598058  1
  C  C92  1  0.86689022  0.53341302  0.55914764  1
  C  C93  1  0.92624033  0.55262240  0.54222106  1
  C  C94  1  0.95021201  0.59414414  0.55130044  1
  C  C95  1  0.91520307  0.61566688  0.57834835  1
  C  C96  1  0.96174674  0.52977222  0.51678013  1
  C  C97  1  0.93808342  0.48728548  0.50908243  1
  C  C98  1  0.97404865  0.46328057  0.48506924  1
  C  C99  1  0.03371630  0.48176093  0.46883463  1
  C  C100  1  0.05708813  0.52485074  0.47572645  1
  C  C101  1  0.02106793  0.54889801  0.49969948  1
  C  C102  1  0.07018867  0.45663518  0.44631859  1
  C  C103  1  0.04648333  0.41377910  0.43925906  1
  C  C104  1  0.08327431  0.38756160  0.41805674  1
  C  C105  1  0.14386687  0.40405507  0.40415640  1
  C  C106  1  0.16737764  0.44741532  0.41056982  1
  C  C107  1  0.13045673  0.47383598  0.43150538  1
  C  C108  1  0.35613313  0.40405507  0.40415640  1
  C  C109  1  0.40120349  0.37260633  0.44275220  1
  C  C110  1  0.43937151  0.39758651  0.46433728  1
  C  C111  1  0.43251142  0.45406499  0.44721415  1
  C  C112  1  0.38815715  0.48580086  0.40784580  1
  C  C113  1  0.34981823  0.46074165  0.38642846  1
  C  C114  1  0.46963763  0.47853880  0.47001281  1
  C  C115  1  0.51286336  0.44627959  0.51039143  1
  C  C116  1  0.54889172  0.47025556  0.53439385  1
  C  C117  1  0.54158691  0.52649741  0.51802375  1
  C  C118  1  0.49902102  0.55899422  0.47701209  1
  C  C119  1  0.46302759  0.53500471  0.45296448  1
  C  C120  1  0.57639839  0.55000608  0.54320133  1
  C  C121  1  0.61909896  0.51739730  0.58396451  1
  C  C122  1  0.65294545  0.54035903  0.61027427  1
  C  C123  1  0.64386687  0.59587869  0.59597607  1
  C  C124  1  0.60167193  0.62871531  0.55468667  1
  C  C125  1  0.56804992  0.60580864  0.52816258  1
  C  C126  1  0.64386598  0.80814468  0.59597723  1
  C  C127  1  0.65657368  0.85162638  0.54225598  1
  C  C128  1  0.61846902  0.89823146  0.51718293  1
  C  C129  1  0.56758119  0.90127109  0.54583054  1
  C  C130  1  0.55421451  0.85733987  0.59918048  1
  C  C131  1  0.59248459  0.81082005  0.62434064  1
  C  C132  1  0.53052590  0.94858814  0.52125273  1
  C  C133  1  0.54497696  0.99297854  0.46849122  1
  C  C134  1  0.50898719  0.04098120  0.44445890  1
  C  C135  1  0.45858867  0.04456527  0.47327742  1
  C  C136  1  0.44356289  0.99983297  0.52567584  1
  C  C137  1  0.47954532  0.95178892  0.54968104  1
  C  C138  1  0.42368649  0.09319450  0.44990298  1
  C  C139  1  0.43873225  0.13766362  0.39738855  1
  C  C140  1  0.40487499  0.18692837  0.37444321  1
  C  C141  1  0.35613402  0.19178908  0.40415525  1
  C  C142  1  0.34060155  0.14703348  0.45641395  1
  C  C143  1  0.37428726  0.09764274  0.47922620  1
  C  C144  1  0.14386598  0.19178909  0.40415525  1
  C  C145  1  0.13330698  0.16293918  0.46156779  1
  C  C146  1  0.09454376  0.11674822  0.48501466  1
  C  C147  1  0.06625525  0.09949647  0.45099031  1
  C  C148  1  0.07592636  0.12893985  0.39342254  1
  C  C149  1  0.11490343  0.17501509  0.37000721  1
  C  C150  1  0.02885040  0.05239924  0.47474589  1
  C  C151  1  0.02057095  0.02230345  0.53246780  1
  C  C152  1  0.98456215  0.97431276  0.55649339  1
  C  C153  1  0.95691566  0.95642054  0.52274037  1
  C  C154  1  0.96440849  0.98699148  0.46492963  1
  C  C155  1  0.00038695  0.03503803  0.44090236  1
  C  C156  1  0.92237469  0.90756417  0.54694480  1
  C  C157  1  0.91478046  0.87733274  0.60472927  1
  C  C158  1  0.88154082  0.82767961  0.62925277  1
  C  C159  1  0.85613402  0.80814468  0.59597723  1
  C  C160  1  0.86309220  0.83875651  0.53808478  1
  C  C161  1  0.89607813  0.88858729  0.51354109  1
  C  C162  1  0.14386542  0.40405575  0.19188674  1
  C  C163  1  0.14776036  0.46114679  0.15394737  1
  C  C164  1  0.11421337  0.48447746  0.10447663  1
  C  C165  1  0.07686119  0.45065452  0.09292511  1
  C  C166  1  0.07378393  0.39337024  0.13038537  1
  C  C167  1  0.10716373  0.37007962  0.17998002  1
  C  C168  1  0.04211145  0.47435097  0.04415869  1
  C  C169  1  0.04419155  0.53184263  0.00754826  1
  C  C170  1  0.00822181  0.55586738  0.95953351  1
  C  C171  1  0.97012110  0.52234677  0.94821599  1
  C  C172  1  0.96873462  0.46473329  0.98437071  1
  C  C173  1  0.00477847  0.44070453  0.03237562  1
  C  C174  1  0.93289138  0.54661115  0.90105099  1
  C  C175  1  0.93470053  0.60418667  0.86490622  1
  C  C176  1  0.89642175  0.62882251  0.81842253  1
  C  C177  1  0.85613458  0.59587801  0.80824573  1
  C  C178  1  0.85485818  0.53816846  0.84403590  1
  C  C179  1  0.89339622  0.51350100  0.89037464  1
  C  C180  1  0.35613458  0.40405575  0.19188675  1
  C  C181  1  0.40142442  0.44242556  0.18487750  1
  C  C182  1  0.43958139  0.46400153  0.13830576  1
  C  C183  1  0.43249025  0.44709508  0.09880582  1
  C  C184  1  0.38791316  0.40794950  0.10629838  1
  C  C185  1  0.34958607  0.38654196  0.15278190  1
  C  C186  1  0.46961082  0.46988912  0.05153030  1
  C  C187  1  0.51306420  0.51004934  0.04355385  1
  C  C188  1  0.54909229  0.53405188  0.99557579  1
  C  C189  1  0.54155954  0.51790077  0.95556142  1
  C  C190  1  0.49876325  0.47710460  0.96393156  1
  C  C191  1  0.46277000  0.45305658  0.01196830  1
  C  C192  1  0.57637592  0.54308374  0.90687878  1
  C  C193  1  0.61930646  0.58362997  0.89886880  1
  C  C194  1  0.65316313  0.60994899  0.84960425  1
  C  C195  1  0.64386542  0.59587801  0.80824573  1
  C  C196  1  0.60143814  0.55480342  0.81655260  1
  C  C197  1  0.56780509  0.52826897  0.86597587  1
  O  O198  1  0.19820796  0.33549031  0.40846414  1
  O  O199  1  0.19820796  0.25604747  0.33559032  1
  O  O200  1  0.19820796  0.40835844  0.25615311  1
  O  O201  1  0.19820796  0.40836316  0.33559269  1
  O  O202  1  0.19820796  0.33548645  0.25615197  1
  O  O203  1  0.19820796  0.25604661  0.40846290  1
  O  O204  1  0.30179204  0.33549031  0.40846414  1
  O  O205  1  0.30179204  0.25604747  0.33559032  1
  O  O206  1  0.30179204  0.40835844  0.25615311  1
  O  O207  1  0.30179204  0.40836316  0.33559269  1
  O  O208  1  0.30179204  0.33548645  0.25615197  1
  O  O209  1  0.30179204  0.25604661  0.40846290  1
  O  O210  1  0.24999587  0.33333333  0.33333333  1
  O  O211  1  0.69820796  0.66444346  0.59166834  1
  O  O212  1  0.69820796  0.74388629  0.66454216  1
  O  O213  1  0.69820796  0.59157532  0.74397937  1
  O  O214  1  0.69820796  0.59157061  0.66453979  1
  O  O215  1  0.69820796  0.66444731  0.74398050  1
  O  O216  1  0.69820796  0.74388716  0.59166958  1
  O  O217  1  0.80179204  0.66444346  0.59166834  1
  O  O218  1  0.80179204  0.74388629  0.66454216  1
  O  O219  1  0.80179204  0.59157532  0.74397937  1
  O  O220  1  0.80179204  0.59157061  0.66453979  1
  O  O221  1  0.80179204  0.66444731  0.74398050  1
  O  O222  1  0.80179204  0.74388716  0.59166958  1
  O  O223  1  0.74999587  0.66666667  0.66666667  1
