# generated using pymatgen
data_Al3H12C24O13
_symmetry_space_group_name_H-M   'P 1'
_cell_length_a   13.76381803
_cell_length_b   17.35627647
_cell_length_c   17.35650299
_cell_angle_alpha   60.00043135
_cell_angle_beta   90.00000224
_cell_angle_gamma   90.00000133
_symmetry_Int_Tables_number   1
_chemical_formula_structural   Al3H12C24O13
_chemical_formula_sum   'Al6 H24 C48 O26'
_cell_volume   3590.79182790
_cell_formula_units_Z   2
loop_
 _symmetry_equiv_pos_site_id
 _symmetry_equiv_pos_as_xyz
  1  'x, y, z'
loop_
 _atom_site_type_symbol
 _atom_site_label
 _atom_site_symmetry_multiplicity
 _atom_site_fract_x
 _atom_site_fract_y
 _atom_site_fract_z
 _atom_site_occupancy
  Al  Al0  1  0.24999274  0.27559719  0.44879524  1
  Al  Al1  1  0.24999273  0.27559550  0.27570103  1
  Al  Al2  1  0.24999273  0.44869579  0.27570373  1
  Al  Al3  1  0.74999274  0.72433713  0.55133612  1
  Al  Al4  1  0.74999275  0.72433883  0.72443033  1
  Al  Al5  1  0.74999274  0.55123853  0.72442763  1
  H  H6  1  0.18357565  0.55470137  0.45263104  1
  H  H7  1  0.92665707  0.37174675  0.47401601  1
  H  H8  1  0.81642436  0.44523295  0.54750032  1
  H  H9  1  0.07334294  0.62818757  0.52611535  1
  H  H10  1  0.58212673  0.39885098  0.44138703  1
  H  H11  1  0.30764540  0.52759430  0.48525981  1
  H  H12  1  0.41787328  0.60108334  0.55874433  1
  H  H13  1  0.69235461  0.47234002  0.51487155  1
  H  H14  1  0.36619613  0.02397082  0.59829684  1
  H  H15  1  0.52357378  0.12293567  0.32835064  1
  H  H16  1  0.63380388  0.97596351  0.40183452  1
  H  H17  1  0.47642623  0.87699866  0.67178072  1
  H  H18  1  0.03596995  0.08549125  0.32485547  1
  H  H19  1  0.07425838  0.06141636  0.60178704  1
  H  H20  1  0.96403006  0.91444308  0.67527589  1
  H  H21  1  0.92574163  0.93851796  0.39834432  1
  H  H22  1  0.16749054  0.41985103  0.00288245  1
  H  H23  1  0.94273980  0.50659514  0.14421901  1
  H  H24  1  0.83250947  0.58008330  0.99724891  1
  H  H25  1  0.05726021  0.49333918  0.85591234  1
  H  H26  1  0.57879907  0.38525866  0.15776287  1
  H  H27  1  0.31097508  0.54118688  0.98934140  1
  H  H28  1  0.42120094  0.61467566  0.84236849  1
  H  H29  1  0.68902493  0.45874744  0.01078996  1
  C  C30  1  0.12668393  0.41551011  0.41561293  1
  C  C31  1  0.12668393  0.16888079  0.41560909  1
  C  C32  1  0.12668392  0.41550910  0.16897797  1
  C  C33  1  0.37331608  0.41551011  0.41561294  1
  C  C34  1  0.37331607  0.16888079  0.41560910  1
  C  C35  1  0.37331607  0.41550910  0.16897797  1
  C  C36  1  0.62668393  0.58442421  0.58451842  1
  C  C37  1  0.62668394  0.83105353  0.58452226  1
  C  C38  1  0.62668394  0.58442523  0.83115339  1
  C  C39  1  0.87331608  0.58442421  0.58451842  1
  C  C40  1  0.87331608  0.83105353  0.58452226  1
  C  C41  1  0.87331609  0.58442523  0.83115339  1
  C  C42  1  0.10548750  0.53141891  0.47280846  1
  C  C43  1  0.06334306  0.45773791  0.45783858  1
  C  C44  1  0.95785557  0.42628616  0.48509580  1
  C  C45  1  0.89451251  0.46851542  0.52732290  1
  C  C46  1  0.93665695  0.54219642  0.54229278  1
  C  C47  1  0.04214444  0.57364816  0.51503556  1
  C  C48  1  0.54719223  0.44186309  0.46634735  1
  C  C49  1  0.43665694  0.45773791  0.45783858  1
  C  C50  1  0.38946472  0.51584198  0.49155691  1
  C  C51  1  0.45280778  0.55807123  0.53378401  1
  C  C52  1  0.56334307  0.54219642  0.54229278  1
  C  C53  1  0.61053529  0.48409235  0.50857445  1
  C  C54  1  0.42311270  0.01376031  0.55651195  1
  C  C55  1  0.43665792  0.08442413  0.45783731  1
  C  C56  1  0.51354523  0.07063099  0.40139104  1
  C  C57  1  0.57688731  0.98617402  0.44361941  1
  C  C58  1  0.56334209  0.91551019  0.54229405  1
  C  C59  1  0.48645479  0.92930333  0.59874031  1
  C  C60  1  0.02066930  0.04911160  0.39938519  1
  C  C61  1  0.06334209  0.08442414  0.45783731  1
  C  C62  1  0.04267279  0.03527970  0.55851780  1
  C  C63  1  0.97933071  0.95082272  0.60074617  1
  C  C64  1  0.93665792  0.91551019  0.54229405  1
  C  C65  1  0.95732722  0.96465462  0.44161356  1
  C  C66  1  0.09624456  0.45393028  0.00168427  1
  C  C67  1  0.06334187  0.45773819  0.08452169  1
  C  C68  1  0.96709731  0.50377508  0.08290310  1
  C  C69  1  0.90375545  0.54600405  0.99844709  1
  C  C70  1  0.93665814  0.54219613  0.91560967  1
  C  C71  1  0.03290270  0.49615925  0.91722826  1
  C  C72  1  0.54528007  0.43405258  0.09068272  1
  C  C73  1  0.43665814  0.45773820  0.08452169  1
  C  C74  1  0.39137808  0.52365278  0.99390464  1
  C  C75  1  0.45471994  0.56588175  0.90944864  1
  C  C76  1  0.56334187  0.54219613  0.91560967  1
  C  C77  1  0.60862193  0.47628154  0.00622671  1
  O  O78  1  0.15891336  0.33715230  0.46541505  1
  O  O79  1  0.15891335  0.19743580  0.33725211  1
  O  O80  1  0.15891335  0.46530524  0.19754614  1
  O  O81  1  0.15891336  0.46531375  0.33725628  1
  O  O82  1  0.15891335  0.33714511  0.19754414  1
  O  O83  1  0.15891336  0.19743448  0.46541288  1
  O  O84  1  0.34108665  0.33715231  0.46541506  1
  O  O85  1  0.34108664  0.19743580  0.33725211  1
  O  O86  1  0.34108664  0.46530524  0.19754614  1
  O  O87  1  0.34108665  0.46531375  0.33725628  1
  O  O88  1  0.34108664  0.33714511  0.19754415  1
  O  O89  1  0.34108665  0.19743448  0.46541288  1
  O  O90  1  0.24999273  0.33333333  0.33333333  1
  O  O91  1  0.65891336  0.66278202  0.53471630  1
  O  O92  1  0.65891337  0.80249852  0.66287925  1
  O  O93  1  0.65891337  0.53462908  0.80258522  1
  O  O94  1  0.65891336  0.53462057  0.66287508  1
  O  O95  1  0.65891337  0.66278921  0.80258721  1
  O  O96  1  0.65891336  0.80249984  0.53471848  1
  O  O97  1  0.84108665  0.66278202  0.53471631  1
  O  O98  1  0.84108666  0.80249852  0.66287925  1
  O  O99  1  0.84108666  0.53462908  0.80258522  1
  O  O100  1  0.84108665  0.53462057  0.66287508  1
  O  O101  1  0.84108666  0.66278921  0.80258721  1
  O  O102  1  0.84108665  0.80249984  0.53471848  1
  O  O103  1  0.74999274  0.66666667  0.66666667  1
