# generated using pymatgen
data_Al3H36C60O13
_symmetry_space_group_name_H-M   'P 1'
_cell_length_a   24.20642110
_cell_length_b   30.52452348
_cell_length_c   30.52485046
_cell_angle_alpha   60.00035271
_cell_angle_beta   89.99999985
_cell_angle_gamma   89.99999937
_symmetry_Int_Tables_number   1
_chemical_formula_structural   Al3H36C60O13
_chemical_formula_sum   'Al6 H72 C120 O26'
_cell_volume   19532.83121028
_cell_formula_units_Z   2
loop_
 _symmetry_equiv_pos_site_id
 _symmetry_equiv_pos_as_xyz
  1  'x, y, z'
loop_
 _atom_site_type_symbol
 _atom_site_label
 _atom_site_symmetry_multiplicity
 _atom_site_fract_x
 _atom_site_fract_y
 _atom_site_fract_z
 _atom_site_occupancy
  Al  Al0  1  0.24999587  0.30049002  0.39901406  1
  Al  Al1  1  0.24999587  0.30048921  0.30059220  1
  Al  Al2  1  0.24999587  0.39891422  0.30059373  1
  Al  Al3  1  0.74999587  0.69944375  0.60111842  1
  Al  Al4  1  0.74999587  0.69944455  0.69954028  1
  Al  Al5  1  0.74999587  0.60101954  0.69953874  1
  H  H6  1  0.21542428  0.41210086  0.45065009  1
  H  H7  1  0.15369008  0.45871106  0.48808701  1
  H  H8  1  0.00171274  0.45084823  0.39949263  1
  H  H9  1  0.06336080  0.40380387  0.36241665  1
  H  H10  1  0.10868971  0.48938702  0.51750007  1
  H  H11  1  0.04598513  0.53110699  0.55940852  1
  H  H12  1  0.89419085  0.52583326  0.46922411  1
  H  H13  1  0.95693932  0.48413434  0.42730366  1
  H  H14  1  0.00096441  0.56090670  0.58962731  1
  H  H15  1  0.93755194  0.59788494  0.63556581  1
  H  H16  1  0.78437019  0.58932088  0.54871194  1
  H  H17  1  0.84796955  0.55286028  0.50235534  1
  H  H18  1  0.38848977  0.46988639  0.32751662  1
  H  H19  1  0.44645274  0.51439944  0.36942227  1
  H  H20  1  0.38906952  0.39011339  0.52891074  1
  H  H21  1  0.33149848  0.34533621  0.48700367  1
  H  H22  1  0.49085006  0.54474005  0.39954991  1
  H  H23  1  0.55366527  0.58652154  0.44132727  1
  H  H24  1  0.49463436  0.46401012  0.60096123  1
  H  H25  1  0.43179604  0.42226122  0.55914727  1
  H  H26  1  0.59889808  0.61643919  0.47129475  1
  H  H27  1  0.66602987  0.65548571  0.51282602  1
  H  H28  1  0.61079632  0.53102406  0.67293491  1
  H  H29  1  0.54318914  0.49233476  0.63132739  1
  H  H30  1  0.28362291  0.13665036  0.44701736  1
  H  H31  1  0.34561115  0.05276299  0.48433608  1
  H  H32  1  0.49960228  0.15048558  0.40295322  1
  H  H33  1  0.43767810  0.23443232  0.36600670  1
  H  H34  1  0.39064615  0.99269573  0.51373711  1
  H  H35  1  0.45334513  0.90906379  0.55564697  1
  H  H36  1  0.60726945  0.00586042  0.47260812  1
  H  H37  1  0.54452754  0.08948392  0.43068422  1
  H  H38  1  0.49835399  0.84903783  0.58586970  1
  H  H39  1  0.56151754  0.76596457  0.63192303  1
  H  H40  1  0.71664528  0.86260527  0.55231502  1
  H  H41  1  0.65332090  0.94559537  0.50582698  1
  H  H42  1  0.06804831  0.22992956  0.41847146  1
  H  H43  1  0.00362035  0.14757644  0.45532066  1
  H  H44  1  0.14518638  0.05943265  0.43081782  1
  H  H45  1  0.20979977  0.14168823  0.39438884  1
  H  H46  1  0.95840088  0.08762521  0.48468619  1
  H  H47  1  0.89569326  0.00399870  0.52659439  1
  H  H48  1  0.03575813  0.91591497  0.50013380  1
  H  H49  1  0.09843806  0.99957745  0.45819797  1
  H  H50  1  0.85072491  0.94394726  0.55682491  1
  H  H51  1  0.78988194  0.85941466  0.60332484  1
  H  H52  1  0.93106641  0.76971414  0.58074216  1
  H  H53  1  0.99164812  0.85442901  0.53372629  1
  H  H54  1  0.93989800  0.61388352  0.76510963  1
  H  H55  1  0.00239243  0.57676206  0.84867774  1
  H  H56  1  0.84412635  0.53652339  0.94732114  1
  H  H57  1  0.78161411  0.57324075  0.86374515  1
  H  H58  1  0.04734583  0.54732928  0.90879566  1
  H  H59  1  0.11009305  0.50543824  0.99239637  1
  H  H60  1  0.95244683  0.46712305  0.09153390  1
  H  H61  1  0.88972027  0.50905289  0.00790164  1
  H  H62  1  0.15514961  0.47523411  0.05239170  1
  H  H63  1  0.21788102  0.42901244  0.13573585  1
  H  H64  1  0.06051124  0.38690530  0.23561226  1
  H  H65  1  0.99784370  0.43364921  0.15220996  1
  H  H66  1  0.70171937  0.52672044  0.85416628  1
  H  H67  1  0.64176318  0.48803674  0.93933058  1
  H  H68  1  0.51793294  0.62142353  0.86057657  1
  H  H69  1  0.57765041  0.65986103  0.77524308  1
  H  H70  1  0.59701383  0.45847837  0.99957681  1
  H  H71  1  0.53427087  0.41658471  0.08318021  1
  H  H72  1  0.41141550  0.55091346  0.00592317  1
  H  H73  1  0.47420631  0.59280376  0.92233132  1
  H  H74  1  0.48916646  0.38641003  0.14314544  1
  H  H75  1  0.42401572  0.34167742  0.22496819  1
  H  H76  1  0.29851208  0.47367403  0.14695851  1
  H  H77  1  0.36402423  0.51866714  0.06534505  1
  C  C78  1  0.17988224  0.38004468  0.38014651  1
  C  C79  1  0.17988224  0.23981099  0.38014433  1
  C  C80  1  0.17988224  0.38004433  0.23990917  1
  C  C81  1  0.32011776  0.38004468  0.38014651  1
  C  C82  1  0.32011776  0.23981099  0.38014433  1
  C  C83  1  0.32011776  0.38004433  0.23990917  1
  C  C84  1  0.67988224  0.61988908  0.61998597  1
  C  C85  1  0.67988224  0.76012277  0.61998815  1
  C  C86  1  0.67988224  0.61988944  0.76022331  1
  C  C87  1  0.82011776  0.61988908  0.61998597  1
  C  C88  1  0.82011776  0.76012277  0.61998815  1
  C  C89  1  0.82011776  0.61988944  0.76022331  1
  C  C90  1  0.14386687  0.40405507  0.40415640  1
  C  C91  1  0.16994345  0.42023730  0.43986373  1
  C  C92  1  0.13450935  0.44704776  0.46133782  1
  C  C93  1  0.07300866  0.45776053  0.44699004  1
  C  C94  1  0.04715018  0.44249086  0.41047223  1
  C  C95  1  0.08255450  0.41546701  0.38917403  1
  C  C96  1  0.03731655  0.48319444  0.46973047  1
  C  C97  1  0.06303470  0.49709130  0.50731007  1
  C  C98  1  0.02706855  0.52110892  0.53130997  1
  C  C99  1  0.96535154  0.53114251  0.51774206  1
  C  C100  1  0.93982356  0.51805231  0.47949492  1
  C  C101  1  0.97583856  0.49407724  0.45544642  1
  C  C102  1  0.92906630  0.55366454  0.54297947  1
  C  C103  1  0.95489795  0.56693624  0.58096034  1
  C  C104  1  0.91846540  0.58816668  0.60737509  1
  C  C105  1  0.85613313  0.59587869  0.59597607  1
  C  C106  1  0.83041372  0.58324848  0.55744389  1
  C  C107  1  0.86694221  0.56228762  0.53080180  1
  C  C108  1  0.35613313  0.40405507  0.40415640  1
  C  C109  1  0.38871689  0.45285770  0.37035387  1
  C  C110  1  0.42197389  0.47845750  0.39440773  1
  C  C111  1  0.42252483  0.45527675  0.45228266  1
  C  C112  1  0.38905204  0.40701358  0.48606973  1
  C  C113  1  0.35598288  0.38128829  0.46200447  1
  C  C114  1  0.45715210  0.48011851  0.47628487  1
  C  C115  1  0.49174515  0.52755380  0.44239841  1
  C  C116  1  0.52773762  0.55158606  0.46636712  1
  C  C117  1  0.52915424  0.52808723  0.52425247  1
  C  C118  1  0.49382867  0.48115701  0.55811404  1
  C  C119  1  0.45777333  0.45715951  0.53411335  1
  C  C120  1  0.56649621  0.55119690  0.54823769  1
  C  C121  1  0.60146594  0.59827961  0.51417167  1
  C  C122  1  0.64005796  0.62071091  0.53802754  1
  C  C123  1  0.64386687  0.59587869  0.59597607  1
  C  C124  1  0.60830244  0.54916917  0.63006249  1
  C  C125  1  0.56945284  0.52691756  0.60617081  1
  C  C126  1  0.35613402  0.19178909  0.40415525  1
  C  C127  1  0.32958055  0.13959992  0.43774246  1
  C  C128  1  0.36516247  0.09140831  0.45914701  1
  C  C129  1  0.42729333  0.09543931  0.44684865  1
  C  C130  1  0.45367654  0.14755650  0.41242690  1
  C  C131  1  0.41811360  0.19577882  0.39120337  1
  C  C132  1  0.46305997  0.04731184  0.46955254  1
  C  C133  1  0.43674954  0.99546320  0.50506857  1
  C  C134  1  0.47271599  0.94744587  0.52906696  1
  C  C135  1  0.53502277  0.95135079  0.51756504  1
  C  C136  1  0.56118400  0.00308607  0.48135940  1
  C  C137  1  0.52517125  0.05111105  0.45731012  1
  C  C138  1  0.57123237  0.90354378  0.54284069  1
  C  C139  1  0.54478006  0.85190119  0.57876808  1
  C  C140  1  0.58106860  0.80416545  0.60524891  1
  C  C141  1  0.64386598  0.80814467  0.59597723  1
  C  C142  1  0.67023916  0.85971790  0.55948272  1
  C  C143  1  0.63386851  0.90742011  0.53276612  1
  C  C144  1  0.14386598  0.19178909  0.40415525  1
  C  C145  1  0.08449496  0.19363507  0.42120628  1
  C  C146  1  0.04746367  0.14635492  0.44233190  1
  C  C147  1  0.06980976  0.09726108  0.44629114  1
  C  C148  1  0.12882527  0.09567376  0.42830438  1
  C  C149  1  0.16594471  0.14291724  0.40738041  1
  C  C150  1  0.03325057  0.04963202  0.46884250  1
  C  C151  1  0.97484774  0.05105683  0.48805545  1
  C  C152  1  0.93881659  0.00308019  0.51204139  1
  C  C153  1  0.96128584  0.95367218  0.51685463  1
  C  C154  1  0.01933099  0.95245277  0.49685452  1
  C  C155  1  0.05534198  0.00047887  0.47280491  1
  C  C156  1  0.92590640  0.90534312  0.54229004  1
  C  C157  1  0.86779581  0.90687942  0.56194329  1
  C  C158  1  0.83283641  0.85830783  0.58867991  1
  C  C159  1  0.85613402  0.80814468  0.59597723  1
  C  C160  1  0.91399218  0.80674752  0.57569306  1
  C  C161  1  0.94882472  0.85541699  0.54868044  1
  C  C162  1  0.85613458  0.59587801  0.80824573  1
  C  C163  1  0.91953014  0.59732521  0.80386930  1
  C  C164  1  0.95543662  0.57604714  0.85185628  1
  C  C165  1  0.92789926  0.55342051  0.90421375  1
  C  C166  1  0.86449598  0.55287117  0.90855993  1
  C  C167  1  0.82858341  0.57395845  0.86055803  1
  C  C168  1  0.96389063  0.53080420  0.95219937  1
  C  C169  1  0.02719441  0.53019215  0.94769298  1
  C  C170  1  0.06322172  0.50621748  0.99567152  1
  C  C171  1  0.03586865  0.48279767  0.04814982  1
  C  C172  1  0.97261171  0.48417570  0.05264628  1
  C  C173  1  0.93658530  0.50821963  0.00463040  1
  C  C174  1  0.07182049  0.45742162  0.09611842  1
  C  C175  1  0.13504825  0.45642386  0.09136458  1
  C  C176  1  0.17110026  0.42985088  0.13924856  1
  C  C177  1  0.14386542  0.40405576  0.19188675  1
  C  C178  1  0.08063866  0.40565186  0.19665955  1
  C  C179  1  0.04460869  0.43250118  0.14874360  1
  C  C180  1  0.64386542  0.59587801  0.80824573  1
  C  C181  1  0.66256506  0.54679702  0.85549520  1
  C  C182  1  0.62816409  0.52459233  0.90442892  1
  C  C183  1  0.57511420  0.55156578  0.90610877  1
  C  C184  1  0.55696388  0.60121128  0.85916965  1
  C  C185  1  0.59125978  0.62329360  0.81015109  1
  C  C186  1  0.53994129  0.52844572  0.95460909  1
  C  C187  1  0.55748101  0.47807587  0.00094146  1
  C  C188  1  0.52151619  0.45406274  0.04895930  1
  C  C189  1  0.46796374  0.48043890  0.05055984  1
  C  C190  1  0.45089533  0.53125580  0.00454337  1
  C  C191  1  0.48692500  0.55529773  0.95652955  1
  C  C192  1  0.43115686  0.45558912  0.09799074  1
  C  C193  1  0.44860634  0.40493589  0.14397110  1
  C  C194  1  0.41116751  0.37921648  0.19098298  1
  C  C195  1  0.35613458  0.40405576  0.19188674  1
  C  C196  1  0.33902790  0.45509572  0.14614155  1
  C  C197  1  0.37665594  0.48096145  0.09923055  1
  O  O198  1  0.19820796  0.33549031  0.40846413  1
  O  O199  1  0.19820796  0.25604747  0.33559032  1
  O  O200  1  0.19820796  0.40835844  0.25615311  1
  O  O201  1  0.19820796  0.40836316  0.33559269  1
  O  O202  1  0.19820796  0.33548645  0.25615198  1
  O  O203  1  0.19820796  0.25604661  0.40846290  1
  O  O204  1  0.30179204  0.33549031  0.40846413  1
  O  O205  1  0.30179204  0.25604747  0.33559032  1
  O  O206  1  0.30179204  0.40835844  0.25615311  1
  O  O207  1  0.30179204  0.40836316  0.33559269  1
  O  O208  1  0.30179204  0.33548645  0.25615198  1
  O  O209  1  0.30179204  0.25604660  0.40846290  1
  O  O210  1  0.24999587  0.33333333  0.33333333  1
  O  O211  1  0.69820796  0.66444346  0.59166834  1
  O  O212  1  0.69820796  0.74388629  0.66454216  1
  O  O213  1  0.69820796  0.59157532  0.74397937  1
  O  O214  1  0.69820796  0.59157061  0.66453979  1
  O  O215  1  0.69820796  0.66444731  0.74398050  1
  O  O216  1  0.69820796  0.74388716  0.59166958  1
  O  O217  1  0.80179204  0.66444346  0.59166834  1
  O  O218  1  0.80179204  0.74388629  0.66454216  1
  O  O219  1  0.80179204  0.59157532  0.74397937  1
  O  O220  1  0.80179204  0.59157060  0.66453979  1
  O  O221  1  0.80179204  0.66444731  0.74398050  1
  O  O222  1  0.80179204  0.74388716  0.59166958  1
  O  O223  1  0.74999587  0.66666667  0.66666667  1
